(PID.TID 0000.0001) *** ERROR *** NetCDF ERROR:
(PID.TID 0000.0001) *** ERROR *** MNC ERROR: sync for file 'mnc_test_0013/state.0000004610.t001.nc' in S/R MNC_CW_RL_W
