(PID.TID 0010.0001) 
(PID.TID 0010.0001) // ======================================================
(PID.TID 0010.0001) //                      MITgcm UV
(PID.TID 0010.0001) //                      =========
(PID.TID 0010.0001) // ======================================================
(PID.TID 0010.0001) // execution environment starting up...
(PID.TID 0010.0001) 
(PID.TID 0010.0001) // MITgcmUV version:  checkpoint67y
(PID.TID 0010.0001) // Build user:        hcm7920
(PID.TID 0010.0001) // Build host:        cs081.nyu.cluster
(PID.TID 0010.0001) // Build date:        Tue Jul  6 13:04:10 EDT 2021
(PID.TID 0010.0001) 
(PID.TID 0010.0001) // =======================================================
(PID.TID 0010.0001) // Execution Environment parameter file "eedata"
(PID.TID 0010.0001) // =======================================================
(PID.TID 0010.0001) ># Example "eedata" file
(PID.TID 0010.0001) ># Lines beginning "#" are comments
(PID.TID 0010.0001) >#  nTx      :: No. threads per process in X
(PID.TID 0010.0001) >#  nTy      :: No. threads per process in Y
(PID.TID 0010.0001) ># debugMode :: print debug msg (sequence of S/R calls)
(PID.TID 0010.0001) > &EEPARMS
(PID.TID 0010.0001) > nTx=1,
(PID.TID 0010.0001) > nTy=1,
(PID.TID 0010.0001) > &
(PID.TID 0010.0001) ># Note: Some systems use & as the namelist terminator (as shown here).
(PID.TID 0010.0001) >#       Other systems use a / character.
(PID.TID 0010.0001) 
(PID.TID 0010.0001) // =======================================================
(PID.TID 0010.0001) // Computational Grid Specification ( see files "SIZE.h" )
(PID.TID 0010.0001) //                                  ( and "eedata"       )
(PID.TID 0010.0001) // =======================================================
(PID.TID 0010.0001)      nPx =    4 ; /* No. processes in X */
(PID.TID 0010.0001)      nPy =    4 ; /* No. processes in Y */
(PID.TID 0010.0001)      nSx =    1 ; /* No. tiles in X per process */
(PID.TID 0010.0001)      nSy =    1 ; /* No. tiles in Y per process */
(PID.TID 0010.0001)      sNx =   75 ; /* Tile size in X */
(PID.TID 0010.0001)      sNy =   75 ; /* Tile size in Y */
(PID.TID 0010.0001)      OLx =    3 ; /* Tile overlap distance in X */
(PID.TID 0010.0001)      OLy =    3 ; /* Tile overlap distance in Y */
(PID.TID 0010.0001)      nTx =    1 ; /* No. threads in X per process */
(PID.TID 0010.0001)      nTy =    1 ; /* No. threads in Y per process */
(PID.TID 0010.0001)       Nr =   40 ; /* No. levels in the vertical   */
(PID.TID 0010.0001)       Nx =  300 ; /* Total domain size in X ( = nPx*nSx*sNx ) */
(PID.TID 0010.0001)       Ny =  300 ; /* Total domain size in Y ( = nPy*nSy*sNy ) */
(PID.TID 0010.0001)   nTiles =    1 ; /* Total no. tiles per process ( = nSx*nSy ) */
(PID.TID 0010.0001)   nProcs =   16 ; /* Total no. processes ( = nPx*nPy ) */
(PID.TID 0010.0001) nThreads =    1 ; /* Total no. threads per process ( = nTx*nTy ) */
(PID.TID 0010.0001) usingMPI =    T ; /* Flag used to control whether MPI is in use */
(PID.TID 0010.0001)                   /*  note: To execute a program with MPI calls */
(PID.TID 0010.0001)                   /*  it must be launched appropriately e.g     */
(PID.TID 0010.0001)                   /*  "mpirun -np 64 ......"                    */
(PID.TID 0010.0001) useCoupler=   F ; /* Flag used to control communications with   */
(PID.TID 0010.0001)                   /*  other model components, through a coupler */
(PID.TID 0010.0001) useNest2W_parent =    F ;/* Control 2-W Nesting comm */
(PID.TID 0010.0001) useNest2W_child  =    F ;/* Control 2-W Nesting comm */
(PID.TID 0010.0001) debugMode =    F ; /* print debug msg. (sequence of S/R calls)  */
(PID.TID 0010.0001) printMapIncludesZeros=    F ; /* print zeros in Std.Output maps */
(PID.TID 0010.0001) maxLengthPrt1D=   65 /* maxLength of 1D array printed to StdOut */
(PID.TID 0010.0001) 
(PID.TID 0010.0001) ======= Starting MPI parallel Run =========
(PID.TID 0010.0001)  My Processor Name (len: 17 ) = cs050.nyu.cluster
(PID.TID 0010.0001)  Located at (  2,  2) on processor grid (0:  3,0:  3)
(PID.TID 0010.0001)  Origin at  (   151,   151) on global grid (1:   300,1:   300)
(PID.TID 0010.0001)  North neighbor = processor 0011
(PID.TID 0010.0001)  South neighbor = processor 0009
(PID.TID 0010.0001)   East neighbor = processor 0014
(PID.TID 0010.0001)   West neighbor = processor 0006
(PID.TID 0010.0001) // ======================================================
(PID.TID 0010.0001) // Mapping of tiles to threads
(PID.TID 0010.0001) // ======================================================
(PID.TID 0010.0001) // -o- Thread   1, tiles (   1:   1,   1:   1)
(PID.TID 0010.0001) 
(PID.TID 0010.0001) // ======================================================
(PID.TID 0010.0001) // Tile <-> Tile connectvity table
(PID.TID 0010.0001) // ======================================================
(PID.TID 0010.0001) // Tile number: 000011 (process no. = 000010)
(PID.TID 0010.0001) //        WEST: Tile = 000010, Process = 000006, Comm = messages
(PID.TID 0010.0001) //                bi = 000001, bj = 000001
(PID.TID 0010.0001) //        EAST: Tile = 000012, Process = 000014, Comm = messages
(PID.TID 0010.0001) //                bi = 000001, bj = 000001
(PID.TID 0010.0001) //       SOUTH: Tile = 000007, Process = 000009, Comm = messages
(PID.TID 0010.0001) //                bi = 000001, bj = 000001
(PID.TID 0010.0001) //       NORTH: Tile = 000015, Process = 000011, Comm = messages
(PID.TID 0010.0001) //                bi = 000001, bj = 000001
(PID.TID 0010.0001) 
(PID.TID 0010.0001)  INI_PARMS: opening model parameter file "data"
(PID.TID 0010.0001)  OPEN_COPY_DATA_FILE: opening file data
(PID.TID 0010.0001) // =======================================================
(PID.TID 0010.0001) // Parameter file "data"
(PID.TID 0010.0001) // =======================================================
(PID.TID 0010.0001) ># Model parameters
(PID.TID 0010.0001) ># Continuous equation parameters
(PID.TID 0010.0001) > &PARM01
(PID.TID 0010.0001) > viscAh=5000.,
(PID.TID 0010.0001) > viscAr=1.E-2,
(PID.TID 0010.0001) > no_slip_sides=.TRUE.,
(PID.TID 0010.0001) > no_slip_bottom=.FALSE.,
(PID.TID 0010.0001) > diffKhT=1000.,
(PID.TID 0010.0001) > diffKrT=1.E-5,
(PID.TID 0010.0001) > ivdc_kappa=1.,
(PID.TID 0010.0001) > implicitDiffusion=.TRUE.,
(PID.TID 0010.0001) > eosType='LINEAR',
(PID.TID 0010.0001) > tRef=30.,29.5,29.,28.5,28.,27.5,27.,26.5,26.,25.5,25.,24.5,24.,23.5,23.,22.5,22.,21.5,21.,20.5,20.,19.,18.,17.,16.,15.,14.,13.,12.,11.,10.,9.,8.,7.,6.,5.,4.,3.,2.,1.,
(PID.TID 0010.0001) > sRef=40*30.,
(PID.TID 0010.0001) > tAlpha=2.E-4,
(PID.TID 0010.0001) > sBeta=7.4E-4,
(PID.TID 0010.0001) > rhoNil=999.8,
(PID.TID 0010.0001) > gravity=9.81,
(PID.TID 0010.0001) > rigidLid=.FALSE.,
(PID.TID 0010.0001) > implicitFreeSurface=.TRUE.,
(PID.TID 0010.0001) > exactConserv=.TRUE.,
(PID.TID 0010.0001) > saltStepping=.TRUE.,
(PID.TID 0010.0001) > tempStepping=.TRUE.,
(PID.TID 0010.0001) ># globalFiles=.TRUE.,
(PID.TID 0010.0001) > &
(PID.TID 0010.0001) >
(PID.TID 0010.0001) ># Elliptic solver parameters
(PID.TID 0010.0001) > &PARM02
(PID.TID 0010.0001) > cg2dTargetResidual=1.E-7,
(PID.TID 0010.0001) > cg2dMaxIters=1000,
(PID.TID 0010.0001) > &
(PID.TID 0010.0001) >
(PID.TID 0010.0001) ># Time stepping parameters
(PID.TID 0010.0001) > &PARM03
(PID.TID 0010.0001) > startTime=0.,
(PID.TID 0010.0001) > endTime=9.E9,
(PID.TID 0010.0001) > deltaT=300.,
(PID.TID 0010.0001) > pChkptFreq=9.E8,
(PID.TID 0010.0001) > chkptFreq=3.E8,
(PID.TID 0010.0001) > dumpFreq=3.E3,
(PID.TID 0010.0001) > monitorFreq=9.E7,
(PID.TID 0010.0001) > monitorSelect=2,
(PID.TID 0010.0001) > tauThetaClimRelax=3.E6,
(PID.TID 0010.0001) >#-for longer run (100 yrs)
(PID.TID 0010.0001) ># endTime = 3110400000.,
(PID.TID 0010.0001) ># monitorFreq=2592000.,
(PID.TID 0010.0001) > &
(PID.TID 0010.0001) >
(PID.TID 0010.0001) ># Gridding parameters
(PID.TID 0010.0001) > &PARM04
(PID.TID 0010.0001) > usingCartesianGrid=.TRUE.,
(PID.TID 0010.0001) > delX=300*4.E3,
(PID.TID 0010.0001) > delY=300*4.E3,
(PID.TID 0010.0001) > xgOrigin=0.,
(PID.TID 0010.0001) > ygOrigin=0.,
(PID.TID 0010.0001) > delR=40*20.
(PID.TID 0010.0001) > &
(PID.TID 0010.0001) >
(PID.TID 0010.0001) > &PARM05
(PID.TID 0010.0001) > bathyFile='bathymetry.bin',
(PID.TID 0010.0001) > zonalWindFile='windx.bin',
(PID.TID 0010.0001) > meridWindFile='windy.bin',
(PID.TID 0010.0001) > thetaClimFile='sst-relax.bin',
(PID.TID 0010.0001) > &
(PID.TID 0010.0001) 
(PID.TID 0010.0001)  INI_PARMS ; starts to read PARM01
(PID.TID 0010.0001)  INI_PARMS ; read PARM01 : OK
(PID.TID 0010.0001)  INI_PARMS ; starts to read PARM02
(PID.TID 0010.0001)  INI_PARMS ; read PARM02 : OK
(PID.TID 0010.0001)  INI_PARMS ; starts to read PARM03
(PID.TID 0010.0001)  INI_PARMS ; read PARM03 : OK
(PID.TID 0010.0001)  INI_PARMS ; starts to read PARM04
(PID.TID 0010.0001)  INI_PARMS ; read PARM04 : OK
(PID.TID 0010.0001)  INI_PARMS ; starts to read PARM05
(PID.TID 0010.0001)  INI_PARMS ; read PARM05 : OK
(PID.TID 0010.0001)  INI_PARMS: finished reading file "data"
(PID.TID 0010.0001)  PACKAGES_BOOT: opening data.pkg
(PID.TID 0010.0001)  OPEN_COPY_DATA_FILE: opening file data.pkg
(PID.TID 0010.0001) // =======================================================
(PID.TID 0010.0001) // Parameter file "data.pkg"
(PID.TID 0010.0001) // =======================================================
(PID.TID 0010.0001) ># Packages (lines beginning "#" are comments)
(PID.TID 0010.0001) > &PACKAGES
(PID.TID 0010.0001) > useMNC=.TRUE.,
(PID.TID 0010.0001) > useDiagnostics=.TRUE.,
(PID.TID 0010.0001) > &
(PID.TID 0010.0001) 
(PID.TID 0010.0001)  PACKAGES_BOOT: finished reading data.pkg
(PID.TID 0010.0001)  PACKAGES_BOOT: On/Off package Summary
 --------  pkgs with a standard "usePKG" On/Off switch in "data.pkg":  --------
 pkg/diagnostics          compiled   and   used ( useDiagnostics           = T )
 pkg/mnc                  compiled   and   used ( useMNC                   = T )
 -------- pkgs without standard "usePKG" On/Off switch in "data.pkg":  --------
 pkg/generic_advdiff      compiled   and   used ( useGAD                   = T )
 pkg/mom_common           compiled   and   used ( momStepping              = T )
 pkg/mom_vecinv           compiled but not used ( +vectorInvariantMomentum = F )
 pkg/mom_fluxform         compiled   and   used ( & not vectorInvariantMom = T )
 pkg/monitor              compiled   and   used ( monitorFreq > 0.         = T )
 pkg/debug                compiled but not used ( debugMode                = F )
 pkg/rw                   compiled   and   used
 pkg/mdsio                compiled   and   used
(PID.TID 0010.0001)  PACKAGES_BOOT: End of package Summary
(PID.TID 0010.0001) 
(PID.TID 0010.0001)  MNC_READPARMS: opening file 'data.mnc'
(PID.TID 0010.0001)  OPEN_COPY_DATA_FILE: opening file data.mnc
(PID.TID 0010.0001) // =======================================================
(PID.TID 0010.0001) // Parameter file "data.mnc"
(PID.TID 0010.0001) // =======================================================
(PID.TID 0010.0001) ># Example "data.mnc" file
(PID.TID 0010.0001) > &MNC_01
(PID.TID 0010.0001) > monitor_mnc=.FALSE.,
(PID.TID 0010.0001) > mnc_use_outdir=.TRUE.,
(PID.TID 0010.0001) > mnc_outdir_str='mnc_test_',
(PID.TID 0010.0001) > &
(PID.TID 0010.0001) >
(PID.TID 0010.0001) 
(PID.TID 0010.0001)  MNC_READPARMS: finished reading data.mnc
(PID.TID 0010.0001)  DIAGNOSTICS_READPARMS: opening data.diagnostics
(PID.TID 0010.0001)  OPEN_COPY_DATA_FILE: opening file data.diagnostics
(PID.TID 0010.0001) // =======================================================
(PID.TID 0010.0001) // Parameter file "data.diagnostics"
(PID.TID 0010.0001) // =======================================================
(PID.TID 0010.0001) ># Diagnostic Package Choices
(PID.TID 0010.0001) >#--------------------
(PID.TID 0010.0001) >#  dumpAtLast (logical): always write output at the end of simulation (default=F)
(PID.TID 0010.0001) >#  diag_mnc   (logical): write to NetCDF files (default=useMNC)
(PID.TID 0010.0001) >#--for each output-stream:
(PID.TID 0010.0001) >#  fileName(n) : prefix of the output file name (max 80c long) for outp.stream n
(PID.TID 0010.0001) >#  frequency(n):< 0 : write snap-shot output every |frequency| seconds
(PID.TID 0010.0001) >#               > 0 : write time-average output every frequency seconds
(PID.TID 0010.0001) >#  timePhase(n)     : write at time = timePhase + multiple of |frequency|
(PID.TID 0010.0001) >#    averagingFreq  : frequency (in s) for periodic averaging interval
(PID.TID 0010.0001) >#    averagingPhase : phase     (in s) for periodic averaging interval
(PID.TID 0010.0001) >#    repeatCycle    : number of averaging intervals in 1 cycle
(PID.TID 0010.0001) >#  levels(:,n) : list of levels to write to file (Notes: declared as REAL)
(PID.TID 0010.0001) >#                when this entry is missing, select all common levels of this list
(PID.TID 0010.0001) >#  fields(:,n) : list of selected diagnostics fields (8.c) in outp.stream n
(PID.TID 0010.0001) >#                (see "available_diagnostics.log" file for the full list of diags)
(PID.TID 0010.0001) >#  missing_value(n) : missing value for real-type fields in output file "n"
(PID.TID 0010.0001) >#  fileFlags(n)     : specific code (8c string) for output file "n"
(PID.TID 0010.0001) >#--------------------
(PID.TID 0010.0001) > &DIAGNOSTICS_LIST
(PID.TID 0010.0001) >  fields(1:3,1)  = 'ETAN    ','TRELAX  ','MXLDEPTH',
(PID.TID 0010.0001) >  fileName(1) = 'surfDiag',
(PID.TID 0010.0001) >  frequency(1) = 31104000.,
(PID.TID 0010.0001) >
(PID.TID 0010.0001) >  fields(1:5,2)  = 'THETA   ','PHIHYD  ',
(PID.TID 0010.0001) >                   'UVEL    ','VVEL    ','WVEL    ',
(PID.TID 0010.0001) ># did not specify levels => all levels are selected
(PID.TID 0010.0001) >   fileName(2) = 'dynDiag',
(PID.TID 0010.0001) >  frequency(2) = 31104000.,
(PID.TID 0010.0001) > &
(PID.TID 0010.0001) >
(PID.TID 0010.0001) >#--------------------
(PID.TID 0010.0001) ># Parameter for Diagnostics of per level statistics:
(PID.TID 0010.0001) >#--------------------
(PID.TID 0010.0001) >#  diagSt_mnc (logical): write stat-diags to NetCDF files (default=diag_mnc)
(PID.TID 0010.0001) >#  diagSt_regMaskFile : file containing the region-mask to read-in
(PID.TID 0010.0001) >#  nSetRegMskFile   : number of region-mask sets within the region-mask file
(PID.TID 0010.0001) >#  set_regMask(i)   : region-mask set-index that identifies the region "i"
(PID.TID 0010.0001) >#  val_regMask(i)   : region "i" identifier value in the region mask
(PID.TID 0010.0001) >#--for each output-stream:
(PID.TID 0010.0001) >#  stat_fName(n) : prefix of the output file name (max 80c long) for outp.stream n
(PID.TID 0010.0001) >#  stat_freq(n):< 0 : write snap-shot output every |stat_freq| seconds
(PID.TID 0010.0001) >#               > 0 : write time-average output every stat_freq seconds
(PID.TID 0010.0001) >#  stat_phase(n)    : write at time = stat_phase + multiple of |stat_freq|
(PID.TID 0010.0001) >#  stat_region(:,n) : list of "regions" (default: 1 region only=global)
(PID.TID 0010.0001) >#  stat_fields(:,n) : list of selected diagnostics fields (8.c) in outp.stream n
(PID.TID 0010.0001) >#                (see "available_diagnostics.log" file for the full list of diags)
(PID.TID 0010.0001) >#--------------------
(PID.TID 0010.0001) > &DIAG_STATIS_PARMS
(PID.TID 0010.0001) >  stat_fields(1:2,1) = 'THETA   ','TRELAX  ',
(PID.TID 0010.0001) >  stat_fName(1) = 'dynStDiag',
(PID.TID 0010.0001) >  stat_freq(1) = 2592000.,
(PID.TID 0010.0001) > &
(PID.TID 0010.0001) 
(PID.TID 0010.0001) S/R DIAGNOSTICS_READPARMS, read namelist "diagnostics_list": start
(PID.TID 0010.0001) S/R DIAGNOSTICS_READPARMS, read namelist "diagnostics_list": OK
(PID.TID 0010.0001) S/R DIAGNOSTICS_READPARMS, read namelist "DIAG_STATIS_PARMS": start
(PID.TID 0010.0001) S/R DIAGNOSTICS_READPARMS, read namelist "DIAG_STATIS_PARMS": OK
(PID.TID 0010.0001)  DIAGNOSTICS_READPARMS: global parameter summary:
(PID.TID 0010.0001)  dumpAtLast = /* always write time-ave diags at the end */
(PID.TID 0010.0001)                   F
(PID.TID 0010.0001)     ;
(PID.TID 0010.0001)  diag_mnc =   /* write NetCDF output files */
(PID.TID 0010.0001)                   T
(PID.TID 0010.0001)     ;
(PID.TID 0010.0001)  useMissingValue = /* put MissingValue where mask = 0 */
(PID.TID 0010.0001)                   F
(PID.TID 0010.0001)     ;
(PID.TID 0010.0001)  diagCG_maxIters = /* max number of iters in diag_cg2d */
(PID.TID 0010.0001)                    1000
(PID.TID 0010.0001)     ;
(PID.TID 0010.0001)  diagCG_resTarget = /* residual target for diag_cg2d */
(PID.TID 0010.0001)                 1.000000000000000E-07
(PID.TID 0010.0001)     ;
(PID.TID 0010.0001)  diagCG_pcOffDFac = /* preconditioner off-diagonal factor */
(PID.TID 0010.0001)                 9.611687812379854E-01
(PID.TID 0010.0001)     ;
(PID.TID 0010.0001) -----------------------------------------------------
(PID.TID 0010.0001)  DIAGNOSTICS_READPARMS: active diagnostics summary:
(PID.TID 0010.0001) -----------------------------------------------------
(PID.TID 0010.0001) Creating Output Stream: surfDiag
(PID.TID 0010.0001) Output Frequency:   31104000.000000 ; Phase:           0.000000
(PID.TID 0010.0001)  Averaging Freq.:   31104000.000000 , Phase:           0.000000 , Cycle:   1
(PID.TID 0010.0001)  missing value: -9.990000000000E+02
(PID.TID 0010.0001)  Levels:    will be set later
(PID.TID 0010.0001)  Fields:    ETAN     TRELAX   MXLDEPTH
(PID.TID 0010.0001) Creating Output Stream: dynDiag
(PID.TID 0010.0001) Output Frequency:   31104000.000000 ; Phase:           0.000000
(PID.TID 0010.0001)  Averaging Freq.:   31104000.000000 , Phase:           0.000000 , Cycle:   1
(PID.TID 0010.0001)  missing value: -9.990000000000E+02
(PID.TID 0010.0001)  Levels:    will be set later
(PID.TID 0010.0001)  Fields:    THETA    PHIHYD   UVEL     VVEL     WVEL
(PID.TID 0010.0001) -----------------------------------------------------
(PID.TID 0010.0001)  DIAGNOSTICS_READPARMS: statistics diags. summary:
(PID.TID 0010.0001) Creating Stats. Output Stream: dynStDiag
(PID.TID 0010.0001) Output Frequency:    2592000.000000 ; Phase:           0.000000
(PID.TID 0010.0001)  Regions:   0
(PID.TID 0010.0001)  Fields:    THETA    TRELAX
(PID.TID 0010.0001) -----------------------------------------------------
(PID.TID 0010.0001) 
(PID.TID 0010.0001) SET_PARMS: done
(PID.TID 0010.0001) Enter INI_VERTICAL_GRID: setInterFDr=    T ; setCenterDr=    F
(PID.TID 0010.0001) %MON XC_max                       =   1.1980000000000E+06
(PID.TID 0010.0001) %MON XC_min                       =   2.0000000000000E+03
(PID.TID 0010.0001) %MON XC_mean                      =   6.0000000000000E+05
(PID.TID 0010.0001) %MON XC_sd                        =   3.4640823700753E+05
(PID.TID 0010.0001) %MON XG_max                       =   1.1960000000000E+06
(PID.TID 0010.0001) %MON XG_min                       =   0.0000000000000E+00
(PID.TID 0010.0001) %MON XG_mean                      =   5.9800000000000E+05
(PID.TID 0010.0001) %MON XG_sd                        =   3.4640823700753E+05
(PID.TID 0010.0001) %MON DXC_max                      =   4.0000000000000E+03
(PID.TID 0010.0001) %MON DXC_min                      =   4.0000000000000E+03
(PID.TID 0010.0001) %MON DXC_mean                     =   4.0000000000000E+03
(PID.TID 0010.0001) %MON DXC_sd                       =   0.0000000000000E+00
(PID.TID 0010.0001) %MON DXF_max                      =   4.0000000000000E+03
(PID.TID 0010.0001) %MON DXF_min                      =   4.0000000000000E+03
(PID.TID 0010.0001) %MON DXF_mean                     =   4.0000000000000E+03
(PID.TID 0010.0001) %MON DXF_sd                       =   0.0000000000000E+00
(PID.TID 0010.0001) %MON DXG_max                      =   4.0000000000000E+03
(PID.TID 0010.0001) %MON DXG_min                      =   4.0000000000000E+03
(PID.TID 0010.0001) %MON DXG_mean                     =   4.0000000000000E+03
(PID.TID 0010.0001) %MON DXG_sd                       =   0.0000000000000E+00
(PID.TID 0010.0001) %MON DXV_max                      =   4.0000000000000E+03
(PID.TID 0010.0001) %MON DXV_min                      =   4.0000000000000E+03
(PID.TID 0010.0001) %MON DXV_mean                     =   4.0000000000000E+03
(PID.TID 0010.0001) %MON DXV_sd                       =   0.0000000000000E+00
(PID.TID 0010.0001) %MON YC_max                       =   1.1980000000000E+06
(PID.TID 0010.0001) %MON YC_min                       =   2.0000000000000E+03
(PID.TID 0010.0001) %MON YC_mean                      =   6.0000000000000E+05
(PID.TID 0010.0001) %MON YC_sd                        =   3.4640823700753E+05
(PID.TID 0010.0001) %MON YG_max                       =   1.1960000000000E+06
(PID.TID 0010.0001) %MON YG_min                       =   0.0000000000000E+00
(PID.TID 0010.0001) %MON YG_mean                      =   5.9800000000000E+05
(PID.TID 0010.0001) %MON YG_sd                        =   3.4640823700753E+05
(PID.TID 0010.0001) %MON DYC_max                      =   4.0000000000000E+03
(PID.TID 0010.0001) %MON DYC_min                      =   4.0000000000000E+03
(PID.TID 0010.0001) %MON DYC_mean                     =   4.0000000000000E+03
(PID.TID 0010.0001) %MON DYC_sd                       =   0.0000000000000E+00
(PID.TID 0010.0001) %MON DYF_max                      =   4.0000000000000E+03
(PID.TID 0010.0001) %MON DYF_min                      =   4.0000000000000E+03
(PID.TID 0010.0001) %MON DYF_mean                     =   4.0000000000000E+03
(PID.TID 0010.0001) %MON DYF_sd                       =   0.0000000000000E+00
(PID.TID 0010.0001) %MON DYG_max                      =   4.0000000000000E+03
(PID.TID 0010.0001) %MON DYG_min                      =   4.0000000000000E+03
(PID.TID 0010.0001) %MON DYG_mean                     =   4.0000000000000E+03
(PID.TID 0010.0001) %MON DYG_sd                       =   0.0000000000000E+00
(PID.TID 0010.0001) %MON DYU_max                      =   4.0000000000000E+03
(PID.TID 0010.0001) %MON DYU_min                      =   4.0000000000000E+03
(PID.TID 0010.0001) %MON DYU_mean                     =   4.0000000000000E+03
(PID.TID 0010.0001) %MON DYU_sd                       =   0.0000000000000E+00
(PID.TID 0010.0001) %MON RA_max                       =   1.6000000000000E+07
(PID.TID 0010.0001) %MON RA_min                       =   1.6000000000000E+07
(PID.TID 0010.0001) %MON RA_mean                      =   1.6000000000000E+07
(PID.TID 0010.0001) %MON RA_sd                        =   0.0000000000000E+00
(PID.TID 0010.0001) %MON RAW_max                      =   1.6000000000000E+07
(PID.TID 0010.0001) %MON RAW_min                      =   1.6000000000000E+07
(PID.TID 0010.0001) %MON RAW_mean                     =   1.6000000000000E+07
(PID.TID 0010.0001) %MON RAW_sd                       =   0.0000000000000E+00
(PID.TID 0010.0001) %MON RAS_max                      =   1.6000000000000E+07
(PID.TID 0010.0001) %MON RAS_min                      =   1.6000000000000E+07
(PID.TID 0010.0001) %MON RAS_mean                     =   1.6000000000000E+07
(PID.TID 0010.0001) %MON RAS_sd                       =   0.0000000000000E+00
(PID.TID 0010.0001) %MON RAZ_max                      =   1.6000000000000E+07
(PID.TID 0010.0001) %MON RAZ_min                      =   1.6000000000000E+07
(PID.TID 0010.0001) %MON RAZ_mean                     =   1.6000000000000E+07
(PID.TID 0010.0001) %MON RAZ_sd                       =   0.0000000000000E+00
(PID.TID 0010.0001) %MON AngleCS_max                  =   1.0000000000000E+00
(PID.TID 0010.0001) %MON AngleCS_min                  =   1.0000000000000E+00
(PID.TID 0010.0001) %MON AngleCS_mean                 =   1.0000000000000E+00
(PID.TID 0010.0001) %MON AngleCS_sd                   =   0.0000000000000E+00
(PID.TID 0010.0001) %MON AngleSN_max                  =   0.0000000000000E+00
(PID.TID 0010.0001) %MON AngleSN_min                  =   0.0000000000000E+00
(PID.TID 0010.0001) %MON AngleSN_mean                 =   0.0000000000000E+00
(PID.TID 0010.0001) %MON AngleSN_sd                   =   0.0000000000000E+00
(PID.TID 0010.0001)  MDS_READ_FIELD: opening global file: bathymetry.bin
(PID.TID 0010.0001) // =======================================================
(PID.TID 0010.0001) // Field Model R_low (ini_masks_etc)
(PID.TID 0010.0001) // CMIN =         -8.000000000000000E+02
(PID.TID 0010.0001) // CMAX =         -8.000000000000000E+02
(PID.TID 0010.0001) // CINT =          0.000000000000000E+00
(PID.TID 0010.0001) // SYMBOLS (CMIN->CMAX): -abcdefghijklmnopqrstuvwxyz+
(PID.TID 0010.0001) //                  0.0: .
(PID.TID 0010.0001) // RANGE I (Lo:Hi:Step):(   148:   228:     1)
(PID.TID 0010.0001) // RANGE J (Lo:Hi:Step):(   228:   148:    -1)
(PID.TID 0010.0001) // RANGE K (Lo:Hi:Step):(   1:   1:   1)
(PID.TID 0010.0001) // =======================================================
(PID.TID 0010.0001) // =======================================================
(PID.TID 0010.0001) // END OF FIELD                                          =
(PID.TID 0010.0001) // =======================================================
(PID.TID 0010.0001) 
(PID.TID 0010.0001) // =======================================================
(PID.TID 0010.0001) // Field Model Ro_surf (ini_masks_etc)
(PID.TID 0010.0001) // CMIN =          1.000000000000000E+32
(PID.TID 0010.0001) // CMAX =         -1.000000000000000E+32
(PID.TID 0010.0001) // CINT =          0.000000000000000E+00
(PID.TID 0010.0001) // SYMBOLS (CMIN->CMAX): -abcdefghijklmnopqrstuvwxyz+
(PID.TID 0010.0001) //                  0.0: .
(PID.TID 0010.0001) // RANGE I (Lo:Hi:Step):(   148:   228:     1)
(PID.TID 0010.0001) // RANGE J (Lo:Hi:Step):(   228:   148:    -1)
(PID.TID 0010.0001) // RANGE K (Lo:Hi:Step):(   1:   1:   1)
(PID.TID 0010.0001) // =======================================================
(PID.TID 0010.0001) // =======================================================
(PID.TID 0010.0001) // END OF FIELD                                          =
(PID.TID 0010.0001) // =======================================================
(PID.TID 0010.0001) 
(PID.TID 0010.0001) // =======================================================
(PID.TID 0010.0001) // Field hFacC at iteration          0
(PID.TID 0010.0001) // CMIN =          1.000000000000000E+00
(PID.TID 0010.0001) // CMAX =          1.000000000000000E+00
(PID.TID 0010.0001) // CINT =          0.000000000000000E+00
(PID.TID 0010.0001) // SYMBOLS (CMIN->CMAX): -abcdefghijklmnopqrstuvwxyz+
(PID.TID 0010.0001) //                  0.0: .
(PID.TID 0010.0001) // RANGE I (Lo:Hi:Step):(   148:   228:     1)
(PID.TID 0010.0001) // RANGE J (Lo:Hi:Step):(   228:   148:    -1)
(PID.TID 0010.0001) // RANGE K (Lo:Hi:Step):(   1:   1:   1)
(PID.TID 0010.0001) // =======================================================
(PID.TID 0010.0001) // =======================================================
(PID.TID 0010.0001) // END OF FIELD                                          =
(PID.TID 0010.0001) // =======================================================
(PID.TID 0010.0001) 
(PID.TID 0010.0001) // =======================================================
(PID.TID 0010.0001) // Field hFacW at iteration          0
(PID.TID 0010.0001) // CMIN =          1.000000000000000E+00
(PID.TID 0010.0001) // CMAX =          1.000000000000000E+00
(PID.TID 0010.0001) // CINT =          0.000000000000000E+00
(PID.TID 0010.0001) // SYMBOLS (CMIN->CMAX): -abcdefghijklmnopqrstuvwxyz+
(PID.TID 0010.0001) //                  0.0: .
(PID.TID 0010.0001) // RANGE I (Lo:Hi:Step):(   148:   228:     1)
(PID.TID 0010.0001) // RANGE J (Lo:Hi:Step):(   228:   148:    -1)
(PID.TID 0010.0001) // RANGE K (Lo:Hi:Step):(   1:   1:   1)
(PID.TID 0010.0001) // =======================================================
(PID.TID 0010.0001) // =======================================================
(PID.TID 0010.0001) // END OF FIELD                                          =
(PID.TID 0010.0001) // =======================================================
(PID.TID 0010.0001) 
(PID.TID 0010.0001) // =======================================================
(PID.TID 0010.0001) // Field hFacS at iteration          0
(PID.TID 0010.0001) // CMIN =          1.000000000000000E+00
(PID.TID 0010.0001) // CMAX =          1.000000000000000E+00
(PID.TID 0010.0001) // CINT =          0.000000000000000E+00
(PID.TID 0010.0001) // SYMBOLS (CMIN->CMAX): -abcdefghijklmnopqrstuvwxyz+
(PID.TID 0010.0001) //                  0.0: .
(PID.TID 0010.0001) // RANGE I (Lo:Hi:Step):(   148:   228:     1)
(PID.TID 0010.0001) // RANGE J (Lo:Hi:Step):(   228:   148:    -1)
(PID.TID 0010.0001) // RANGE K (Lo:Hi:Step):(   1:   1:   1)
(PID.TID 0010.0001) // =======================================================
(PID.TID 0010.0001) // =======================================================
(PID.TID 0010.0001) // END OF FIELD                                          =
(PID.TID 0010.0001) // =======================================================
(PID.TID 0010.0001) 
(PID.TID 0010.0001) GAD_INIT_FIXED: GAD_OlMinSize=  1  0  1
(PID.TID 0010.0001) 
(PID.TID 0010.0001) // ===================================
(PID.TID 0010.0001) // GAD parameters :
(PID.TID 0010.0001) // ===================================
(PID.TID 0010.0001) tempAdvScheme =   /* Temp. Horiz.Advection scheme selector */
(PID.TID 0010.0001)                       2
(PID.TID 0010.0001)     ;
(PID.TID 0010.0001) tempVertAdvScheme =   /* Temp. Vert. Advection scheme selector */
(PID.TID 0010.0001)                       2
(PID.TID 0010.0001)     ;
(PID.TID 0010.0001) tempMultiDimAdvec =   /* use Muti-Dim Advec method for Temp */
(PID.TID 0010.0001)                   F
(PID.TID 0010.0001)     ;
(PID.TID 0010.0001) tempSOM_Advection = /* use 2nd Order Moment Advection for Temp */
(PID.TID 0010.0001)                   F
(PID.TID 0010.0001)     ;
(PID.TID 0010.0001) AdamsBashforthGt = /* apply Adams-Bashforth extrapolation on Gt */
(PID.TID 0010.0001)                   T
(PID.TID 0010.0001)     ;
(PID.TID 0010.0001) AdamsBashforth_T = /* apply Adams-Bashforth extrapolation on Temp */
(PID.TID 0010.0001)                   F
(PID.TID 0010.0001)     ;
(PID.TID 0010.0001) saltAdvScheme =   /* Salt. Horiz.advection scheme selector */
(PID.TID 0010.0001)                       2
(PID.TID 0010.0001)     ;
(PID.TID 0010.0001) saltVertAdvScheme =   /* Salt. Vert. Advection scheme selector */
(PID.TID 0010.0001)                       2
(PID.TID 0010.0001)     ;
(PID.TID 0010.0001) saltMultiDimAdvec =   /* use Muti-Dim Advec method for Salt */
(PID.TID 0010.0001)                   F
(PID.TID 0010.0001)     ;
(PID.TID 0010.0001) saltSOM_Advection = /* use 2nd Order Moment Advection for Salt */
(PID.TID 0010.0001)                   F
(PID.TID 0010.0001)     ;
(PID.TID 0010.0001) AdamsBashforthGs = /* apply Adams-Bashforth extrapolation on Gs */
(PID.TID 0010.0001)                   T
(PID.TID 0010.0001)     ;
(PID.TID 0010.0001) AdamsBashforth_S = /* apply Adams-Bashforth extrapolation on Salt */
(PID.TID 0010.0001)                   F
(PID.TID 0010.0001)     ;
(PID.TID 0010.0001) // ===================================
(PID.TID 0010.0001) ------------------------------------------------------------
(PID.TID 0010.0001) DIAGNOSTICS_SET_LEVELS: done
(PID.TID 0010.0001)  Total Nb of available Diagnostics: ndiagt=   189
(PID.TID 0010.0001) SETDIAG: Allocate  1 x  1 Levels for Diagnostic #    23 ETAN
(PID.TID 0010.0001) SETDIAG: Allocate  1 x  1 Levels for Diagnostic #    88 TRELAX
(PID.TID 0010.0001) SETDIAG: Allocate  1 x  1 Levels for Diagnostic #    76 MXLDEPTH
(PID.TID 0010.0001) SETDIAG: Allocate 40 x  1 Levels for Diagnostic #    26 THETA
(PID.TID 0010.0001) SETDIAG: Allocate 40 x  1 Levels for Diagnostic #    71 PHIHYD
(PID.TID 0010.0001) SETDIAG: Allocate 40 x  1 Levels for Diagnostic #    30 UVEL
(PID.TID 0010.0001) SETDIAG: Allocate 40 x  1 Levels for Diagnostic #    31 VVEL
(PID.TID 0010.0001) SETDIAG: Allocate 40 x  1 Levels for Diagnostic #    32 WVEL
(PID.TID 0010.0001)   space allocated for all diagnostics:     203 levels
(PID.TID 0010.0001)   set mate pointer for diag #    30  UVEL     , Parms: UUR     MR , mate:    31
(PID.TID 0010.0001)   set mate pointer for diag #    31  VVEL     , Parms: VVR     MR , mate:    30
(PID.TID 0010.0001) DIAGNOSTICS_SET_POINTERS: Set levels for Outp.Stream: surfDiag
(PID.TID 0010.0001)  Levels:       1.
(PID.TID 0010.0001) DIAGNOSTICS_SET_POINTERS: Set levels for Outp.Stream: dynDiag
(PID.TID 0010.0001)  Levels:       1.   2.   3.   4.   5.   6.   7.   8.   9.  10.  11.  12.  13.  14.  15.  16.  17.  18.  19.  20.
(PID.TID 0010.0001)  Levels:      21.  22.  23.  24.  25.  26.  27.  28.  29.  30.  31.  32.  33.  34.  35.  36.  37.  38.  39.  40.
(PID.TID 0010.0001) DIAGNOSTICS_SET_POINTERS: done
(PID.TID 0010.0001) ------------------------------------------------------------
(PID.TID 0010.0001) DIAGSTATS_SET_REGIONS: define no region
(PID.TID 0010.0001) ------------------------------------------------------------
(PID.TID 0010.0001) SETDIAG: Allocate 40 Levels for Stats-Diag #    26 THETA
(PID.TID 0010.0001) SETDIAG: Allocate  1 Levels for Stats-Diag #    88 TRELAX
(PID.TID 0010.0001)   space allocated for all stats-diags:      41 levels
(PID.TID 0010.0001) DIAGSTATS_SET_POINTERS: done
(PID.TID 0010.0001) ------------------------------------------------------------
(PID.TID 0010.0001) %MON fCori_max                    =   1.1198000000000E-04
(PID.TID 0010.0001) %MON fCori_min                    =   1.0002000000000E-04
(PID.TID 0010.0001) %MON fCori_mean                   =   1.0600000000000E-04
(PID.TID 0010.0001) %MON fCori_sd                     =   3.4640823700753E-06
(PID.TID 0010.0001) %MON fCoriG_max                   =   1.1196000000000E-04
(PID.TID 0010.0001) %MON fCoriG_min                   =   1.0000000000000E-04
(PID.TID 0010.0001) %MON fCoriG_mean                  =   1.0598000000000E-04
(PID.TID 0010.0001) %MON fCoriG_sd                    =   3.4640823700753E-06
(PID.TID 0010.0001) %MON fCoriCos_max                 =   0.0000000000000E+00
(PID.TID 0010.0001) %MON fCoriCos_min                 =   0.0000000000000E+00
(PID.TID 0010.0001) %MON fCoriCos_mean                =   0.0000000000000E+00
(PID.TID 0010.0001) %MON fCoriCos_sd                  =   0.0000000000000E+00
(PID.TID 0010.0001) INI_CG2D: CG2D normalisation factor =  1.2500000000000000E-03
(PID.TID 0010.0001) 
(PID.TID 0010.0001) // =======================================================
(PID.TID 0010.0001) // Model configuration
(PID.TID 0010.0001) // =======================================================
(PID.TID 0010.0001) //
(PID.TID 0010.0001) // "Physical" paramters ( PARM01 in namelist )
(PID.TID 0010.0001) //
(PID.TID 0010.0001) buoyancyRelation = /* Type of relation to get Buoyancy */
(PID.TID 0010.0001)               'OCEANIC'
(PID.TID 0010.0001)     ;
(PID.TID 0010.0001) fluidIsAir   =  /* fluid major constituent is Air */
(PID.TID 0010.0001)                   F
(PID.TID 0010.0001)     ;
(PID.TID 0010.0001) fluidIsWater =  /* fluid major constituent is Water */
(PID.TID 0010.0001)                   T
(PID.TID 0010.0001)     ;
(PID.TID 0010.0001) usingPCoords =  /* use p (or p*) vertical coordinate */
(PID.TID 0010.0001)                   F
(PID.TID 0010.0001)     ;
(PID.TID 0010.0001) usingZCoords =  /* use z (or z*) vertical coordinate */
(PID.TID 0010.0001)                   T
(PID.TID 0010.0001)     ;
(PID.TID 0010.0001) tRef =   /* Reference temperature profile ( oC or K ) */
(PID.TID 0010.0001)                 3.000000000000000E+01,      /* K =  1 */
(PID.TID 0010.0001)                 2.950000000000000E+01,      /* K =  2 */
(PID.TID 0010.0001)                 2.900000000000000E+01,      /* K =  3 */
(PID.TID 0010.0001)                 2.850000000000000E+01,      /* K =  4 */
(PID.TID 0010.0001)                 2.800000000000000E+01,      /* K =  5 */
(PID.TID 0010.0001)                 2.750000000000000E+01,      /* K =  6 */
(PID.TID 0010.0001)                 2.700000000000000E+01,      /* K =  7 */
(PID.TID 0010.0001)                 2.650000000000000E+01,      /* K =  8 */
(PID.TID 0010.0001)                 2.600000000000000E+01,      /* K =  9 */
(PID.TID 0010.0001)                 2.550000000000000E+01,      /* K = 10 */
(PID.TID 0010.0001)                 2.500000000000000E+01,      /* K = 11 */
(PID.TID 0010.0001)                 2.450000000000000E+01,      /* K = 12 */
(PID.TID 0010.0001)                 2.400000000000000E+01,      /* K = 13 */
(PID.TID 0010.0001)                 2.350000000000000E+01,      /* K = 14 */
(PID.TID 0010.0001)                 2.300000000000000E+01,      /* K = 15 */
(PID.TID 0010.0001)                 2.250000000000000E+01,      /* K = 16 */
(PID.TID 0010.0001)                 2.200000000000000E+01,      /* K = 17 */
(PID.TID 0010.0001)                 2.150000000000000E+01,      /* K = 18 */
(PID.TID 0010.0001)                 2.100000000000000E+01,      /* K = 19 */
(PID.TID 0010.0001)                 2.050000000000000E+01,      /* K = 20 */
(PID.TID 0010.0001)                 2.000000000000000E+01,      /* K = 21 */
(PID.TID 0010.0001)                 1.900000000000000E+01,      /* K = 22 */
(PID.TID 0010.0001)                 1.800000000000000E+01,      /* K = 23 */
(PID.TID 0010.0001)                 1.700000000000000E+01,      /* K = 24 */
(PID.TID 0010.0001)                 1.600000000000000E+01,      /* K = 25 */
(PID.TID 0010.0001)                 1.500000000000000E+01,      /* K = 26 */
(PID.TID 0010.0001)                 1.400000000000000E+01,      /* K = 27 */
(PID.TID 0010.0001)                 1.300000000000000E+01,      /* K = 28 */
(PID.TID 0010.0001)                 1.200000000000000E+01,      /* K = 29 */
(PID.TID 0010.0001)                 1.100000000000000E+01,      /* K = 30 */
(PID.TID 0010.0001)                 1.000000000000000E+01,      /* K = 31 */
(PID.TID 0010.0001)                 9.000000000000000E+00,      /* K = 32 */
(PID.TID 0010.0001)                 8.000000000000000E+00,      /* K = 33 */
(PID.TID 0010.0001)                 7.000000000000000E+00,      /* K = 34 */
(PID.TID 0010.0001)                 6.000000000000000E+00,      /* K = 35 */
(PID.TID 0010.0001)                 5.000000000000000E+00,      /* K = 36 */
(PID.TID 0010.0001)                 4.000000000000000E+00,      /* K = 37 */
(PID.TID 0010.0001)                 3.000000000000000E+00,      /* K = 38 */
(PID.TID 0010.0001)                 2.000000000000000E+00,      /* K = 39 */
(PID.TID 0010.0001)                 1.000000000000000E+00       /* K = 40 */
(PID.TID 0010.0001)     ;
(PID.TID 0010.0001) sRef =   /* Reference salinity profile ( g/kg ) */
(PID.TID 0010.0001)    40 @  3.000000000000000E+01              /* K =  1: 40 */
(PID.TID 0010.0001)     ;
(PID.TID 0010.0001) useStrainTensionVisc= /* Use StrainTension Form of Viscous Operator */
(PID.TID 0010.0001)                   F
(PID.TID 0010.0001)     ;
(PID.TID 0010.0001) useVariableVisc = /* Use variable horizontal viscosity */
(PID.TID 0010.0001)                   F
(PID.TID 0010.0001)     ;
(PID.TID 0010.0001) useHarmonicVisc = /* Use harmonic horizontal viscosity */
(PID.TID 0010.0001)                   T
(PID.TID 0010.0001)     ;
(PID.TID 0010.0001) useBiharmonicVisc= /* Use biharmonic horiz.  viscosity */
(PID.TID 0010.0001)                   F
(PID.TID 0010.0001)     ;
(PID.TID 0010.0001) useSmag3D = /* Use isotropic 3-D Smagorinsky viscosity */
(PID.TID 0010.0001)                   F
(PID.TID 0010.0001)     ;
(PID.TID 0010.0001) viscAh  =   /* Lateral harmonic viscosity ( m^2/s ) */
(PID.TID 0010.0001)                 5.000000000000000E+03
(PID.TID 0010.0001)     ;
(PID.TID 0010.0001) viscA4  =   /* Lateral biharmonic viscosity ( m^4/s ) */
(PID.TID 0010.0001)                 0.000000000000000E+00
(PID.TID 0010.0001)     ;
(PID.TID 0010.0001) no_slip_sides =  /* Viscous BCs: No-slip sides */
(PID.TID 0010.0001)                   T
(PID.TID 0010.0001)     ;
(PID.TID 0010.0001) sideDragFactor = /* side-drag scaling factor (non-dim) */
(PID.TID 0010.0001)                 2.000000000000000E+00
(PID.TID 0010.0001)     ;
(PID.TID 0010.0001) viscArNr = /* vertical profile of vertical viscosity ( m^2/s )*/
(PID.TID 0010.0001)    40 @  1.000000000000000E-02              /* K =  1: 40 */
(PID.TID 0010.0001)     ;
(PID.TID 0010.0001) no_slip_bottom =  /* Viscous BCs: No-slip bottom */
(PID.TID 0010.0001)                   F
(PID.TID 0010.0001)     ;
(PID.TID 0010.0001) bottomVisc_pCell = /* Partial-cell in bottom Visc. BC */
(PID.TID 0010.0001)                   F
(PID.TID 0010.0001)     ;
(PID.TID 0010.0001) bottomDragLinear = /* linear bottom-drag coefficient ( m/s ) */
(PID.TID 0010.0001)                 0.000000000000000E+00
(PID.TID 0010.0001)     ;
(PID.TID 0010.0001) bottomDragQuadratic = /* quadratic bottom-drag coefficient (-) */
(PID.TID 0010.0001)                 0.000000000000000E+00
(PID.TID 0010.0001)     ;
(PID.TID 0010.0001) selectBotDragQuadr = /* select quadratic bottom drag options */
(PID.TID 0010.0001)                      -1
(PID.TID 0010.0001)     ;
(PID.TID 0010.0001) diffKhT =   /* Laplacian diffusion of heat laterally ( m^2/s ) */
(PID.TID 0010.0001)                 1.000000000000000E+03
(PID.TID 0010.0001)     ;
(PID.TID 0010.0001) diffK4T =   /* Biharmonic diffusion of heat laterally ( m^4/s ) */
(PID.TID 0010.0001)                 0.000000000000000E+00
(PID.TID 0010.0001)     ;
(PID.TID 0010.0001) diffKhS =   /* Laplacian diffusion of salt laterally ( m^2/s ) */
(PID.TID 0010.0001)                 0.000000000000000E+00
(PID.TID 0010.0001)     ;
(PID.TID 0010.0001) diffK4S =   /* Biharmonic diffusion of salt laterally ( m^4/s ) */
(PID.TID 0010.0001)                 0.000000000000000E+00
(PID.TID 0010.0001)     ;
(PID.TID 0010.0001) diffKrNrT = /* vertical profile of vertical diffusion of Temp ( m^2/s )*/
(PID.TID 0010.0001)    40 @  1.000000000000000E-05              /* K =  1: 40 */
(PID.TID 0010.0001)     ;
(PID.TID 0010.0001) diffKrNrS = /* vertical profile of vertical diffusion of Salt ( m^2/s )*/
(PID.TID 0010.0001)    40 @  1.000000000000000E-05              /* K =  1: 40 */
(PID.TID 0010.0001)     ;
(PID.TID 0010.0001) diffKrBL79surf = /* Surface diffusion for Bryan and Lewis 79 ( m^2/s ) */
(PID.TID 0010.0001)                 0.000000000000000E+00
(PID.TID 0010.0001)     ;
(PID.TID 0010.0001) diffKrBL79deep = /* Deep diffusion for Bryan and Lewis 1979 ( m^2/s ) */
(PID.TID 0010.0001)                 0.000000000000000E+00
(PID.TID 0010.0001)     ;
(PID.TID 0010.0001) diffKrBL79scl = /* Depth scale for Bryan and Lewis 1979 ( m ) */
(PID.TID 0010.0001)                 2.000000000000000E+02
(PID.TID 0010.0001)     ;
(PID.TID 0010.0001) diffKrBL79Ho = /* Turning depth for Bryan and Lewis 1979 ( m ) */
(PID.TID 0010.0001)                -2.000000000000000E+03
(PID.TID 0010.0001)     ;
(PID.TID 0010.0001) ivdc_kappa = /* Implicit Vertical Diffusivity for Convection ( m^2/s) */
(PID.TID 0010.0001)                 1.000000000000000E+00
(PID.TID 0010.0001)     ;
(PID.TID 0010.0001) hMixCriteria=  /* Criteria for mixed-layer diagnostic */
(PID.TID 0010.0001)                -8.000000000000000E-01
(PID.TID 0010.0001)     ;
(PID.TID 0010.0001) dRhoSmall =  /* Parameter for mixed-layer diagnostic */
(PID.TID 0010.0001)                 1.000000000000000E-06
(PID.TID 0010.0001)     ;
(PID.TID 0010.0001) hMixSmooth=  /* Smoothing parameter for mixed-layer diagnostic */
(PID.TID 0010.0001)                 0.000000000000000E+00
(PID.TID 0010.0001)     ;
(PID.TID 0010.0001) eosType =  /* Type of Equation of State */
(PID.TID 0010.0001)               'LINEAR'
(PID.TID 0010.0001)     ;
(PID.TID 0010.0001) tAlpha = /* Linear EOS thermal expansion coefficient ( 1/oC ) */
(PID.TID 0010.0001)                 2.000000000000000E-04
(PID.TID 0010.0001)     ;
(PID.TID 0010.0001) sBeta  = /* Linear EOS haline contraction coefficient ( 1/(g/kg) ) */
(PID.TID 0010.0001)                 7.400000000000000E-04
(PID.TID 0010.0001)     ;
(PID.TID 0010.0001) rhoNil    = /* Reference density for Linear EOS ( kg/m^3 ) */
(PID.TID 0010.0001)                 9.998000000000000E+02
(PID.TID 0010.0001)     ;
(PID.TID 0010.0001) selectP_inEOS_Zc = /* select pressure to use in EOS (0,1,2,3) */
(PID.TID 0010.0001)                       0
(PID.TID 0010.0001)     0= -g*rhoConst*z ; 1= pRef (from tRef,sRef); 2= Hyd P ; 3= Hyd+NH P
(PID.TID 0010.0001)     ;
(PID.TID 0010.0001) surf_pRef = /* Surface reference pressure ( Pa ) */
(PID.TID 0010.0001)                 1.013250000000000E+05
(PID.TID 0010.0001)     ;
(PID.TID 0010.0001) HeatCapacity_Cp =  /* Specific heat capacity ( J/kg/K ) */
(PID.TID 0010.0001)                 3.994000000000000E+03
(PID.TID 0010.0001)     ;
(PID.TID 0010.0001) celsius2K = /* 0 degree Celsius converted to Kelvin ( K ) */
(PID.TID 0010.0001)                 2.731500000000000E+02
(PID.TID 0010.0001)     ;
(PID.TID 0010.0001) rhoConst  = /* Reference density (Boussinesq)  ( kg/m^3 ) */
(PID.TID 0010.0001)                 9.998000000000000E+02
(PID.TID 0010.0001)     ;
(PID.TID 0010.0001) rhoFacC = /* normalized Reference density @ cell-Center (-) */
(PID.TID 0010.0001)    40 @  1.000000000000000E+00              /* K =  1: 40 */
(PID.TID 0010.0001)     ;
(PID.TID 0010.0001) rhoFacF = /* normalized Reference density @ W-Interface (-) */
(PID.TID 0010.0001)    41 @  1.000000000000000E+00              /* K =  1: 41 */
(PID.TID 0010.0001)     ;
(PID.TID 0010.0001) rhoConstFresh = /* Fresh-water reference density ( kg/m^3 ) */
(PID.TID 0010.0001)                 9.998000000000000E+02
(PID.TID 0010.0001)     ;
(PID.TID 0010.0001) gravity =   /* Gravitational acceleration ( m/s^2 ) */
(PID.TID 0010.0001)                 9.810000000000000E+00
(PID.TID 0010.0001)     ;
(PID.TID 0010.0001) gBaro =   /* Barotropic gravity ( m/s^2 ) */
(PID.TID 0010.0001)                 9.810000000000000E+00
(PID.TID 0010.0001)     ;
(PID.TID 0010.0001) gravFacC = /* gravity factor (vs surf.) @ cell-Center (-) */
(PID.TID 0010.0001)    40 @  1.000000000000000E+00              /* K =  1: 40 */
(PID.TID 0010.0001)     ;
(PID.TID 0010.0001) gravFacF = /* gravity factor (vs surf.) @ W-Interface (-) */
(PID.TID 0010.0001)    41 @  1.000000000000000E+00              /* K =  1: 41 */
(PID.TID 0010.0001)     ;
(PID.TID 0010.0001) rotationPeriod =   /* Rotation Period ( s ) */
(PID.TID 0010.0001)                 8.616400000000000E+04
(PID.TID 0010.0001)     ;
(PID.TID 0010.0001) omega =   /* Angular velocity ( rad/s ) */
(PID.TID 0010.0001)                 7.292123516990375E-05
(PID.TID 0010.0001)     ;
(PID.TID 0010.0001) f0 =   /* Reference coriolis parameter ( 1/s ) */
(PID.TID 0010.0001)                 1.000000000000000E-04
(PID.TID 0010.0001)     ;
(PID.TID 0010.0001) beta =   /* Beta ( 1/(m.s) ) */
(PID.TID 0010.0001)                 9.999999999999999E-12
(PID.TID 0010.0001)     ;
(PID.TID 0010.0001) fPrime =   /* Second coriolis parameter ( 1/s ) */
(PID.TID 0010.0001)                 0.000000000000000E+00
(PID.TID 0010.0001)     ;
(PID.TID 0010.0001) rigidLid =   /* Rigid lid on/off flag */
(PID.TID 0010.0001)                   F
(PID.TID 0010.0001)     ;
(PID.TID 0010.0001) implicitFreeSurface =   /* Implicit free surface on/off flag */
(PID.TID 0010.0001)                   T
(PID.TID 0010.0001)     ;
(PID.TID 0010.0001) freeSurfFac =   /* Implicit free surface factor */
(PID.TID 0010.0001)                 1.000000000000000E+00
(PID.TID 0010.0001)     ;
(PID.TID 0010.0001) implicSurfPress =  /* Surface Pressure implicit factor (0-1)*/
(PID.TID 0010.0001)                 1.000000000000000E+00
(PID.TID 0010.0001)     ;
(PID.TID 0010.0001) implicDiv2DFlow =  /* Barot. Flow Div. implicit factor (0-1)*/
(PID.TID 0010.0001)                 1.000000000000000E+00
(PID.TID 0010.0001)     ;
(PID.TID 0010.0001) uniformLin_PhiSurf = /* use uniform Bo_surf on/off flag*/
(PID.TID 0010.0001)                   T
(PID.TID 0010.0001)     ;
(PID.TID 0010.0001) uniformFreeSurfLev = /* free-surface level-index is uniform */
(PID.TID 0010.0001)                   T
(PID.TID 0010.0001)     ;
(PID.TID 0010.0001) hFacMin =   /* minimum partial cell factor (hFac) */
(PID.TID 0010.0001)                 1.000000000000000E+00
(PID.TID 0010.0001)     ;
(PID.TID 0010.0001) hFacMinDr = /* minimum partial cell thickness ( m) */
(PID.TID 0010.0001)                 0.000000000000000E+00
(PID.TID 0010.0001)     ;
(PID.TID 0010.0001) exactConserv =  /* Exact Volume Conservation on/off flag*/
(PID.TID 0010.0001)                   T
(PID.TID 0010.0001)     ;
(PID.TID 0010.0001) linFSConserveTr = /* Tracer correction for Lin Free Surface on/off flag*/
(PID.TID 0010.0001)                   F
(PID.TID 0010.0001)     ;
(PID.TID 0010.0001) nonlinFreeSurf = /* Non-linear Free Surf. options (-1,0,1,2,3)*/
(PID.TID 0010.0001)                       0
(PID.TID 0010.0001)      -1,0= Off ; 1,2,3= On, 2=+rescale gU,gV, 3=+update cg2d solv.
(PID.TID 0010.0001)     ;
(PID.TID 0010.0001) hFacInf =   /* lower threshold for hFac (nonlinFreeSurf only)*/
(PID.TID 0010.0001)                 2.000000000000000E-01
(PID.TID 0010.0001)     ;
(PID.TID 0010.0001) hFacSup =   /* upper threshold for hFac (nonlinFreeSurf only)*/
(PID.TID 0010.0001)                 2.000000000000000E+00
(PID.TID 0010.0001)     ;
(PID.TID 0010.0001) select_rStar = /* r* Vertical coord. options (=0 r coord.; >0 uses r*)*/
(PID.TID 0010.0001)                       0
(PID.TID 0010.0001)     ;
(PID.TID 0010.0001) useRealFreshWaterFlux = /* Real Fresh Water Flux on/off flag*/
(PID.TID 0010.0001)                   F
(PID.TID 0010.0001)     ;
(PID.TID 0010.0001) temp_EvPrRn = /* Temp. of Evap/Prec/R (UNSET=use local T)(oC)*/
(PID.TID 0010.0001)                 1.234567000000000E+05
(PID.TID 0010.0001)     ;
(PID.TID 0010.0001) salt_EvPrRn = /* Salin. of Evap/Prec/R (UNSET=use local S)(g/kg)*/
(PID.TID 0010.0001)                 0.000000000000000E+00
(PID.TID 0010.0001)     ;
(PID.TID 0010.0001) selectAddFluid = /* option for mass source/sink of fluid (=0: off) */
(PID.TID 0010.0001)                       0
(PID.TID 0010.0001)     ;
(PID.TID 0010.0001) temp_addMass = /* Temp. of addMass array (UNSET=use local T)(oC)*/
(PID.TID 0010.0001)                 1.234567000000000E+05
(PID.TID 0010.0001)     ;
(PID.TID 0010.0001) salt_addMass = /* Salin. of addMass array (UNSET=use local S)(g/kg)*/
(PID.TID 0010.0001)                 0.000000000000000E+00
(PID.TID 0010.0001)     ;
(PID.TID 0010.0001) convertFW2Salt = /* convert F.W. Flux to Salt Flux (-1=use local S)(g/kg)*/
(PID.TID 0010.0001)                 3.500000000000000E+01
(PID.TID 0010.0001)     ;
(PID.TID 0010.0001) use3Dsolver = /* use 3-D pressure solver on/off flag */
(PID.TID 0010.0001)                   F
(PID.TID 0010.0001)     ;
(PID.TID 0010.0001) nonHydrostatic =  /* Non-Hydrostatic on/off flag */
(PID.TID 0010.0001)                   F
(PID.TID 0010.0001)     ;
(PID.TID 0010.0001) nh_Am2 = /* Non-Hydrostatic terms scaling factor */
(PID.TID 0010.0001)                 1.000000000000000E+00
(PID.TID 0010.0001)     ;
(PID.TID 0010.0001) implicitNHPress = /* Non-Hyd Pressure implicit factor (0-1)*/
(PID.TID 0010.0001)                 1.000000000000000E+00
(PID.TID 0010.0001)     ;
(PID.TID 0010.0001) selectNHfreeSurf = /* Non-Hyd (free-)Surface option */
(PID.TID 0010.0001)                       0
(PID.TID 0010.0001)     ;
(PID.TID 0010.0001) quasiHydrostatic = /* Quasi-Hydrostatic on/off flag */
(PID.TID 0010.0001)                   F
(PID.TID 0010.0001)     ;
(PID.TID 0010.0001) calc_wVelocity = /* vertical velocity calculation on/off flag */
(PID.TID 0010.0001)                   T
(PID.TID 0010.0001)     ;
(PID.TID 0010.0001) momStepping =  /* Momentum equation on/off flag */
(PID.TID 0010.0001)                   T
(PID.TID 0010.0001)     ;
(PID.TID 0010.0001) vectorInvariantMomentum= /* Vector-Invariant Momentum on/off */
(PID.TID 0010.0001)                   F
(PID.TID 0010.0001)     ;
(PID.TID 0010.0001) momAdvection =  /* Momentum advection on/off flag */
(PID.TID 0010.0001)                   T
(PID.TID 0010.0001)     ;
(PID.TID 0010.0001) momViscosity =  /* Momentum viscosity on/off flag */
(PID.TID 0010.0001)                   T
(PID.TID 0010.0001)     ;
(PID.TID 0010.0001) momImplVertAdv= /* Momentum implicit vert. advection on/off*/
(PID.TID 0010.0001)                   F
(PID.TID 0010.0001)     ;
(PID.TID 0010.0001) implicitViscosity = /* Implicit viscosity on/off flag */
(PID.TID 0010.0001)                   F
(PID.TID 0010.0001)     ;
(PID.TID 0010.0001) selectImplicitDrag= /* Implicit bot Drag options (0,1,2)*/
(PID.TID 0010.0001)                       0
(PID.TID 0010.0001)     0= Expl. ; 1= Impl. on provis. Vel ; 2= Fully Impl (with surf.P)
(PID.TID 0010.0001)     ;
(PID.TID 0010.0001) metricTerms =  /* metric-Terms on/off flag */
(PID.TID 0010.0001)                   F
(PID.TID 0010.0001)     ;
(PID.TID 0010.0001) useNHMTerms = /* Non-Hydrostatic Metric-Terms on/off */
(PID.TID 0010.0001)                   F
(PID.TID 0010.0001)     ;
(PID.TID 0010.0001) selectCoriMap = /* Coriolis Map options (0,1,2,3)*/
(PID.TID 0010.0001)                       1
(PID.TID 0010.0001)     0= f-Plane ; 1= Beta-Plane ; 2= Spherical ; 3= read from file
(PID.TID 0010.0001)     ;
(PID.TID 0010.0001) use3dCoriolis = /* 3-D Coriolis on/off flag */
(PID.TID 0010.0001)                   F
(PID.TID 0010.0001)     ;
(PID.TID 0010.0001) useCoriolis =  /* Coriolis on/off flag */
(PID.TID 0010.0001)                   T
(PID.TID 0010.0001)     ;
(PID.TID 0010.0001) useCDscheme =  /* CD scheme on/off flag */
(PID.TID 0010.0001)                   F
(PID.TID 0010.0001)     ;
(PID.TID 0010.0001) selectCoriScheme= /* Scheme selector for Coriolis-Term */
(PID.TID 0010.0001)                       0
(PID.TID 0010.0001)    = 0 : original discretization (simple averaging, no hFac)
(PID.TID 0010.0001)    = 1 : Wet-point averaging (Jamar & Ozer 1986)
(PID.TID 0010.0001)    = 2 : energy conserving scheme (no hFac weight)
(PID.TID 0010.0001)    = 3 : energy conserving scheme using Wet-point averaging
(PID.TID 0010.0001)     ;
(PID.TID 0010.0001) momForcing =  /* Momentum forcing on/off flag */
(PID.TID 0010.0001)                   T
(PID.TID 0010.0001)     ;
(PID.TID 0010.0001) momTidalForcing = /* Momentum Tidal forcing on/off flag */
(PID.TID 0010.0001)                   T
(PID.TID 0010.0001)     ;
(PID.TID 0010.0001) momPressureForcing =  /* Momentum pressure term on/off flag */
(PID.TID 0010.0001)                   T
(PID.TID 0010.0001)     ;
(PID.TID 0010.0001) implicitIntGravWave= /* Implicit Internal Gravity Wave flag */
(PID.TID 0010.0001)                   F
(PID.TID 0010.0001)     ;
(PID.TID 0010.0001) staggerTimeStep =    /* Stagger time stepping on/off flag */
(PID.TID 0010.0001)                   F
(PID.TID 0010.0001)     ;
(PID.TID 0010.0001) doResetHFactors = /* reset thickness factors @ each time-step */
(PID.TID 0010.0001)                   F
(PID.TID 0010.0001)     ;
(PID.TID 0010.0001) multiDimAdvection =  /* enable/disable Multi-Dim Advection */
(PID.TID 0010.0001)                   T
(PID.TID 0010.0001)     ;
(PID.TID 0010.0001) useMultiDimAdvec =   /* Multi-Dim Advection is/is-not used */
(PID.TID 0010.0001)                   F
(PID.TID 0010.0001)     ;
(PID.TID 0010.0001) implicitDiffusion = /* Implicit Diffusion on/off flag */
(PID.TID 0010.0001)                   T
(PID.TID 0010.0001)     ;
(PID.TID 0010.0001) tempStepping =  /* Temperature equation on/off flag */
(PID.TID 0010.0001)                   T
(PID.TID 0010.0001)     ;
(PID.TID 0010.0001) tempAdvection = /* Temperature advection on/off flag */
(PID.TID 0010.0001)                   T
(PID.TID 0010.0001)     ;
(PID.TID 0010.0001) tempImplVertAdv = /* Temp. implicit vert. advection on/off */
(PID.TID 0010.0001)                   F
(PID.TID 0010.0001)     ;
(PID.TID 0010.0001) tempForcing  =  /* Temperature forcing on/off flag */
(PID.TID 0010.0001)                   T
(PID.TID 0010.0001)     ;
(PID.TID 0010.0001) doThetaClimRelax = /* apply SST relaxation on/off flag */
(PID.TID 0010.0001)                   T
(PID.TID 0010.0001)     ;
(PID.TID 0010.0001) tempIsActiveTr = /* Temp. is a dynamically Active Tracer */
(PID.TID 0010.0001)                   T
(PID.TID 0010.0001)     ;
(PID.TID 0010.0001) saltStepping =  /* Salinity equation on/off flag */
(PID.TID 0010.0001)                   T
(PID.TID 0010.0001)     ;
(PID.TID 0010.0001) saltAdvection = /* Salinity advection on/off flag */
(PID.TID 0010.0001)                   T
(PID.TID 0010.0001)     ;
(PID.TID 0010.0001) saltImplVertAdv = /* Sali. implicit vert. advection on/off */
(PID.TID 0010.0001)                   F
(PID.TID 0010.0001)     ;
(PID.TID 0010.0001) saltForcing  =  /* Salinity forcing on/off flag */
(PID.TID 0010.0001)                   T
(PID.TID 0010.0001)     ;
(PID.TID 0010.0001) doSaltClimRelax = /* apply SSS relaxation on/off flag */
(PID.TID 0010.0001)                   F
(PID.TID 0010.0001)     ;
(PID.TID 0010.0001) saltIsActiveTr = /* Salt  is a dynamically Active Tracer */
(PID.TID 0010.0001)                   T
(PID.TID 0010.0001)     ;
(PID.TID 0010.0001)  readBinaryPrec = /* Precision used for reading binary files */
(PID.TID 0010.0001)                      32
(PID.TID 0010.0001)     ;
(PID.TID 0010.0001) writeBinaryPrec = /* Precision used for writing binary files */
(PID.TID 0010.0001)                      32
(PID.TID 0010.0001)     ;
(PID.TID 0010.0001)  rwSuffixType =   /* select format of mds file suffix */
(PID.TID 0010.0001)                       0
(PID.TID 0010.0001)    = 0 : myIter (I10.10) ;   = 1 : 100*myTime (100th sec) ;
(PID.TID 0010.0001)    = 2 : myTime (seconds);   = 3 : myTime/360 (10th of hr);
(PID.TID 0010.0001)    = 4 : myTime/3600 (hours)
(PID.TID 0010.0001)     ;
(PID.TID 0010.0001)  globalFiles = /* write "global" (=not per tile) files */
(PID.TID 0010.0001)                   F
(PID.TID 0010.0001)     ;
(PID.TID 0010.0001)  useSingleCpuIO = /* only master MPI process does I/O */
(PID.TID 0010.0001)                   F
(PID.TID 0010.0001)     ;
(PID.TID 0010.0001)  useSingleCpuInput = /* only master process reads input */
(PID.TID 0010.0001)                   F
(PID.TID 0010.0001)     ;
(PID.TID 0010.0001) /* debLev[*]  : level of debug & auxiliary message printing */
(PID.TID 0010.0001) debLevZero =  0 ; /* level of disabled aux. msg printing */
(PID.TID 0010.0001)    debLevA =  1 ; /* level of minimum  aux. msg printing */
(PID.TID 0010.0001)    debLevB =  2 ; /* level of low aux. print (report read-file opening)*/
(PID.TID 0010.0001)    debLevC =  3 ; /* level of moderate debug prt (most pkgs debug msg) */
(PID.TID 0010.0001)    debLevD =  4 ; /* level of enhanced debug prt (add DEBUG_STATS prt) */
(PID.TID 0010.0001)    debLevE =  5 ; /* level of extensive debug printing */
(PID.TID 0010.0001) debugLevel =  /* select debug printing level */
(PID.TID 0010.0001)                       2
(PID.TID 0010.0001)     ;
(PID.TID 0010.0001)  plotLevel =  /* select PLOT_FIELD printing level */
(PID.TID 0010.0001)                       2
(PID.TID 0010.0001)     ;
(PID.TID 0010.0001) //
(PID.TID 0010.0001) // Elliptic solver(s) paramters ( PARM02 in namelist )
(PID.TID 0010.0001) //
(PID.TID 0010.0001) cg2dMaxIters =   /* Upper limit on 2d con. grad iterations  */
(PID.TID 0010.0001)                    1000
(PID.TID 0010.0001)     ;
(PID.TID 0010.0001) cg2dChkResFreq =   /* 2d con. grad convergence test frequency */
(PID.TID 0010.0001)                       1
(PID.TID 0010.0001)     ;
(PID.TID 0010.0001) cg2dUseMinResSol= /* use cg2d last-iter(=0) / min-resid.(=1) solution */
(PID.TID 0010.0001)                       0
(PID.TID 0010.0001)     ;
(PID.TID 0010.0001) cg2dTargetResidual =   /* 2d con. grad target residual  */
(PID.TID 0010.0001)                 1.000000000000000E-07
(PID.TID 0010.0001)     ;
(PID.TID 0010.0001) cg2dTargetResWunit =   /* CG2d target residual [W units] */
(PID.TID 0010.0001)                -1.000000000000000E+00
(PID.TID 0010.0001)     ;
(PID.TID 0010.0001) cg2dPreCondFreq =   /* Freq. for updating cg2d preconditioner */
(PID.TID 0010.0001)                       1
(PID.TID 0010.0001)     ;
(PID.TID 0010.0001) useSRCGSolver =  /* use single reduction CG solver(s) */
(PID.TID 0010.0001)                   F
(PID.TID 0010.0001)     ;
(PID.TID 0010.0001) printResidualFreq = /* Freq. for printing CG residual */
(PID.TID 0010.0001)                       0
(PID.TID 0010.0001)     ;
(PID.TID 0010.0001) //
(PID.TID 0010.0001) // Time stepping paramters ( PARM03 in namelist )
(PID.TID 0010.0001) //
(PID.TID 0010.0001) deltaTMom =   /* Momentum equation timestep ( s ) */
(PID.TID 0010.0001)                 3.000000000000000E+02
(PID.TID 0010.0001)     ;
(PID.TID 0010.0001) deltaTFreeSurf = /* FreeSurface equation timestep ( s ) */
(PID.TID 0010.0001)                 3.000000000000000E+02
(PID.TID 0010.0001)     ;
(PID.TID 0010.0001) dTtracerLev =  /* Tracer equation timestep ( s ) */
(PID.TID 0010.0001)    40 @  3.000000000000000E+02              /* K =  1: 40 */
(PID.TID 0010.0001)     ;
(PID.TID 0010.0001) deltaTClock  =   /* Model clock timestep ( s ) */
(PID.TID 0010.0001)                 3.000000000000000E+02
(PID.TID 0010.0001)     ;
(PID.TID 0010.0001) cAdjFreq =   /* Convective adjustment interval ( s ) */
(PID.TID 0010.0001)                 0.000000000000000E+00
(PID.TID 0010.0001)     ;
(PID.TID 0010.0001) momForcingOutAB = /* =1: take Momentum Forcing out of Adams-Bash. stepping */
(PID.TID 0010.0001)                       0
(PID.TID 0010.0001)     ;
(PID.TID 0010.0001) tracForcingOutAB = /* =1: take T,S,pTr Forcing out of Adams-Bash. stepping */
(PID.TID 0010.0001)                       0
(PID.TID 0010.0001)     ;
(PID.TID 0010.0001) momDissip_In_AB = /* put Dissipation Tendency in Adams-Bash. stepping */
(PID.TID 0010.0001)                   T
(PID.TID 0010.0001)     ;
(PID.TID 0010.0001) doAB_onGtGs = /* apply AB on Tendencies (rather than on T,S)*/
(PID.TID 0010.0001)                   T
(PID.TID 0010.0001)     ;
(PID.TID 0010.0001) abEps =   /* Adams-Bashforth-2 stabilizing weight */
(PID.TID 0010.0001)                 1.000000000000000E-02
(PID.TID 0010.0001)     ;
(PID.TID 0010.0001) applyExchUV_early = /* Apply EXCH to U,V earlier in time-step */
(PID.TID 0010.0001)                   F
(PID.TID 0010.0001)     ;
(PID.TID 0010.0001) pickupStrictlyMatch= /* stop if pickup do not strictly match */
(PID.TID 0010.0001)                   T
(PID.TID 0010.0001)     ;
(PID.TID 0010.0001) nIter0   =   /* Run starting timestep number */
(PID.TID 0010.0001)                       0
(PID.TID 0010.0001)     ;
(PID.TID 0010.0001) nTimeSteps = /* Number of timesteps */
(PID.TID 0010.0001)                30000000
(PID.TID 0010.0001)     ;
(PID.TID 0010.0001) nEndIter =   /* Run ending timestep number */
(PID.TID 0010.0001)                30000000
(PID.TID 0010.0001)     ;
(PID.TID 0010.0001) baseTime =   /* Model base time ( s ) */
(PID.TID 0010.0001)                 0.000000000000000E+00
(PID.TID 0010.0001)     ;
(PID.TID 0010.0001) startTime =  /* Run start time ( s ) */
(PID.TID 0010.0001)                 0.000000000000000E+00
(PID.TID 0010.0001)     ;
(PID.TID 0010.0001) endTime  =   /* Integration ending time ( s ) */
(PID.TID 0010.0001)                 9.000000000000000E+09
(PID.TID 0010.0001)     ;
(PID.TID 0010.0001) pChkPtFreq = /* Permanent restart/pickup file interval ( s ) */
(PID.TID 0010.0001)                 9.000000000000000E+08
(PID.TID 0010.0001)     ;
(PID.TID 0010.0001) chkPtFreq  = /* Rolling restart/pickup file interval ( s ) */
(PID.TID 0010.0001)                 3.000000000000000E+08
(PID.TID 0010.0001)     ;
(PID.TID 0010.0001) pickup_write_mdsio =   /* Model IO flag. */
(PID.TID 0010.0001)                   T
(PID.TID 0010.0001)     ;
(PID.TID 0010.0001) pickup_read_mdsio =   /* Model IO flag. */
(PID.TID 0010.0001)                   T
(PID.TID 0010.0001)     ;
(PID.TID 0010.0001) pickup_write_mnc =   /* Model IO flag. */
(PID.TID 0010.0001)                   F
(PID.TID 0010.0001)     ;
(PID.TID 0010.0001) pickup_read_mnc =   /* Model IO flag. */
(PID.TID 0010.0001)                   F
(PID.TID 0010.0001)     ;
(PID.TID 0010.0001) writePickupAtEnd =   /* Model IO flag. */
(PID.TID 0010.0001)                   T
(PID.TID 0010.0001)     ;
(PID.TID 0010.0001) dumpFreq =   /* Model state write out interval ( s ). */
(PID.TID 0010.0001)                 3.000000000000000E+03
(PID.TID 0010.0001)     ;
(PID.TID 0010.0001) dumpInitAndLast= /* write out Initial & Last iter. model state */
(PID.TID 0010.0001)                   T
(PID.TID 0010.0001)     ;
(PID.TID 0010.0001) snapshot_mdsio =   /* Model IO flag. */
(PID.TID 0010.0001)                   F
(PID.TID 0010.0001)     ;
(PID.TID 0010.0001) snapshot_mnc =   /* Model IO flag. */
(PID.TID 0010.0001)                   T
(PID.TID 0010.0001)     ;
(PID.TID 0010.0001) monitorFreq =   /* Monitor output interval ( s ). */
(PID.TID 0010.0001)                 9.000000000000000E+07
(PID.TID 0010.0001)     ;
(PID.TID 0010.0001) monitorSelect = /* select group of variables to monitor */
(PID.TID 0010.0001)                       2
(PID.TID 0010.0001)     ;
(PID.TID 0010.0001) monitor_stdio =   /* Model IO flag. */
(PID.TID 0010.0001)                   T
(PID.TID 0010.0001)     ;
(PID.TID 0010.0001) monitor_mnc =   /* Model IO flag. */
(PID.TID 0010.0001)                   F
(PID.TID 0010.0001)     ;
(PID.TID 0010.0001) externForcingPeriod =   /* forcing period (s) */
(PID.TID 0010.0001)                 0.000000000000000E+00
(PID.TID 0010.0001)     ;
(PID.TID 0010.0001) externForcingCycle =   /* period of the cyle (s). */
(PID.TID 0010.0001)                 0.000000000000000E+00
(PID.TID 0010.0001)     ;
(PID.TID 0010.0001) tauThetaClimRelax =   /* relaxation time scale (s) */
(PID.TID 0010.0001)                 3.000000000000000E+06
(PID.TID 0010.0001)     ;
(PID.TID 0010.0001) tauSaltClimRelax =   /* relaxation time scale (s) */
(PID.TID 0010.0001)                 0.000000000000000E+00
(PID.TID 0010.0001)     ;
(PID.TID 0010.0001) latBandClimRelax =   /* max. Lat. where relaxation */
(PID.TID 0010.0001)                 3.600000000000000E+06
(PID.TID 0010.0001)     ;
(PID.TID 0010.0001) //
(PID.TID 0010.0001) // Gridding paramters ( PARM04 in namelist )
(PID.TID 0010.0001) //
(PID.TID 0010.0001) usingCartesianGrid = /* Cartesian coordinates flag ( True/False ) */
(PID.TID 0010.0001)                   T
(PID.TID 0010.0001)     ;
(PID.TID 0010.0001) usingCylindricalGrid = /* Cylindrical coordinates flag ( True/False ) */
(PID.TID 0010.0001)                   F
(PID.TID 0010.0001)     ;
(PID.TID 0010.0001) usingSphericalPolarGrid = /* Spherical coordinates flag ( True/False ) */
(PID.TID 0010.0001)                   F
(PID.TID 0010.0001)     ;
(PID.TID 0010.0001) usingCurvilinearGrid = /* Curvilinear coordinates flag ( True/False ) */
(PID.TID 0010.0001)                   F
(PID.TID 0010.0001)     ;
(PID.TID 0010.0001) useMin4hFacEdges = /* set hFacW,S as minimum of adjacent hFacC factor */
(PID.TID 0010.0001)                   F
(PID.TID 0010.0001)     ;
(PID.TID 0010.0001) interViscAr_pCell = /* account for partial-cell in interior vert. viscosity */
(PID.TID 0010.0001)                   F
(PID.TID 0010.0001)     ;
(PID.TID 0010.0001) interDiffKr_pCell = /* account for partial-cell in interior vert. diffusion */
(PID.TID 0010.0001)                   F
(PID.TID 0010.0001)     ;
(PID.TID 0010.0001) pCellMix_select = /* option to enhance mixing near surface & bottom */
(PID.TID 0010.0001)                       0
(PID.TID 0010.0001)     ;
(PID.TID 0010.0001) selectSigmaCoord = /* Hybrid-Sigma Vert. Coordinate option */
(PID.TID 0010.0001)                       0
(PID.TID 0010.0001)     ;
(PID.TID 0010.0001) rSigmaBnd = /* r/sigma transition ( units of r ==  m ) */
(PID.TID 0010.0001)                 1.234567000000000E+05
(PID.TID 0010.0001)     ;
(PID.TID 0010.0001) rkSign =   /* index orientation relative to vertical coordinate */
(PID.TID 0010.0001)                -1.000000000000000E+00
(PID.TID 0010.0001)     ;
(PID.TID 0010.0001) gravitySign = /* gravity orientation relative to vertical coordinate */
(PID.TID 0010.0001)                -1.000000000000000E+00
(PID.TID 0010.0001)     ;
(PID.TID 0010.0001) seaLev_Z =  /* reference height of sea-level [m] */
(PID.TID 0010.0001)                 0.000000000000000E+00
(PID.TID 0010.0001)     ;
(PID.TID 0010.0001) top_Pres =  /* reference pressure at the top [Pa] */
(PID.TID 0010.0001)                 0.000000000000000E+00
(PID.TID 0010.0001)     ;
(PID.TID 0010.0001) mass2rUnit = /* convert mass per unit area [kg/m2] to r-units [m] */
(PID.TID 0010.0001)                 1.000200040008002E-03
(PID.TID 0010.0001)     ;
(PID.TID 0010.0001) rUnit2mass = /* convert r-units [m] to mass per unit area [kg/m2] */
(PID.TID 0010.0001)                 9.998000000000000E+02
(PID.TID 0010.0001)     ;
(PID.TID 0010.0001) drC =   /* C spacing ( units of r ) */
(PID.TID 0010.0001)                 1.000000000000000E+01,      /* K =  1 */
(PID.TID 0010.0001)    39 @  2.000000000000000E+01,             /* K =  2: 40 */
(PID.TID 0010.0001)                 1.000000000000000E+01       /* K = 41 */
(PID.TID 0010.0001)     ;
(PID.TID 0010.0001) drF =   /* W spacing ( units of r ) */
(PID.TID 0010.0001)    40 @  2.000000000000000E+01              /* K =  1: 40 */
(PID.TID 0010.0001)     ;
(PID.TID 0010.0001) delX = /* U spacing ( m - cartesian, degrees - spherical ) */
(PID.TID 0010.0001)   300 @  4.000000000000000E+03              /* I =  1:300 */
(PID.TID 0010.0001)     ;
(PID.TID 0010.0001) delY = /* V spacing ( m - cartesian, degrees - spherical ) */
(PID.TID 0010.0001)   300 @  4.000000000000000E+03              /* J =  1:300 */
(PID.TID 0010.0001)     ;
(PID.TID 0010.0001) xgOrigin = /* X-axis origin of West  edge (cartesian: m, lat-lon: deg) */
(PID.TID 0010.0001)                 0.000000000000000E+00
(PID.TID 0010.0001)     ;
(PID.TID 0010.0001) ygOrigin = /* Y-axis origin of South edge (cartesian: m, lat-lon: deg) */
(PID.TID 0010.0001)                 0.000000000000000E+00
(PID.TID 0010.0001)     ;
(PID.TID 0010.0001) rSphere =  /* Radius ( ignored - cartesian, m - spherical ) */
(PID.TID 0010.0001)                 6.370000000000000E+06
(PID.TID 0010.0001)     ;
(PID.TID 0010.0001) deepAtmosphere = /* Deep/Shallow Atmosphere flag (True/False) */
(PID.TID 0010.0001)                   F
(PID.TID 0010.0001)     ;
(PID.TID 0010.0001) xC =  /* xC(:,1,:,1) : P-point X coord ( deg. or m if cartesian) */
(PID.TID 0010.0001)                 6.020000000000000E+05,      /* I =  1 */
(PID.TID 0010.0001)                 6.060000000000000E+05,      /* I =  2 */
(PID.TID 0010.0001)                 6.100000000000000E+05,      /* I =  3 */
(PID.TID 0010.0001)      . . .
(PID.TID 0010.0001)                 6.660000000000000E+05,      /* I = 17 */
(PID.TID 0010.0001)                 6.700000000000000E+05,      /* I = 18 */
(PID.TID 0010.0001)                 6.740000000000000E+05,      /* I = 19 */
(PID.TID 0010.0001)                 6.780000000000000E+05,      /* I = 20 */
(PID.TID 0010.0001)                 6.820000000000000E+05,      /* I = 21 */
(PID.TID 0010.0001)                 6.860000000000000E+05,      /* I = 22 */
(PID.TID 0010.0001)      . . .
(PID.TID 0010.0001)                 7.420000000000000E+05,      /* I = 36 */
(PID.TID 0010.0001)                 7.460000000000000E+05,      /* I = 37 */
(PID.TID 0010.0001)                 7.500000000000000E+05,      /* I = 38 */
(PID.TID 0010.0001)                 7.540000000000000E+05,      /* I = 39 */
(PID.TID 0010.0001)                 7.580000000000000E+05,      /* I = 40 */
(PID.TID 0010.0001)      . . .
(PID.TID 0010.0001)                 8.140000000000000E+05,      /* I = 54 */
(PID.TID 0010.0001)                 8.180000000000000E+05,      /* I = 55 */
(PID.TID 0010.0001)                 8.220000000000000E+05,      /* I = 56 */
(PID.TID 0010.0001)                 8.260000000000000E+05,      /* I = 57 */
(PID.TID 0010.0001)                 8.300000000000000E+05,      /* I = 58 */
(PID.TID 0010.0001)                 8.340000000000000E+05,      /* I = 59 */
(PID.TID 0010.0001)      . . .
(PID.TID 0010.0001)                 8.900000000000000E+05,      /* I = 73 */
(PID.TID 0010.0001)                 8.940000000000000E+05,      /* I = 74 */
(PID.TID 0010.0001)                 8.980000000000000E+05       /* I = 75 */
(PID.TID 0010.0001)     ;
(PID.TID 0010.0001) yC =  /* yC(1,:,1,:) : P-point Y coord ( deg. or m if cartesian) */
(PID.TID 0010.0001)                 6.020000000000000E+05,      /* J =  1 */
(PID.TID 0010.0001)                 6.060000000000000E+05,      /* J =  2 */
(PID.TID 0010.0001)                 6.100000000000000E+05,      /* J =  3 */
(PID.TID 0010.0001)      . . .
(PID.TID 0010.0001)                 6.660000000000000E+05,      /* J = 17 */
(PID.TID 0010.0001)                 6.700000000000000E+05,      /* J = 18 */
(PID.TID 0010.0001)                 6.740000000000000E+05,      /* J = 19 */
(PID.TID 0010.0001)                 6.780000000000000E+05,      /* J = 20 */
(PID.TID 0010.0001)                 6.820000000000000E+05,      /* J = 21 */
(PID.TID 0010.0001)                 6.860000000000000E+05,      /* J = 22 */
(PID.TID 0010.0001)      . . .
(PID.TID 0010.0001)                 7.420000000000000E+05,      /* J = 36 */
(PID.TID 0010.0001)                 7.460000000000000E+05,      /* J = 37 */
(PID.TID 0010.0001)                 7.500000000000000E+05,      /* J = 38 */
(PID.TID 0010.0001)                 7.540000000000000E+05,      /* J = 39 */
(PID.TID 0010.0001)                 7.580000000000000E+05,      /* J = 40 */
(PID.TID 0010.0001)      . . .
(PID.TID 0010.0001)                 8.140000000000000E+05,      /* J = 54 */
(PID.TID 0010.0001)                 8.180000000000000E+05,      /* J = 55 */
(PID.TID 0010.0001)                 8.220000000000000E+05,      /* J = 56 */
(PID.TID 0010.0001)                 8.260000000000000E+05,      /* J = 57 */
(PID.TID 0010.0001)                 8.300000000000000E+05,      /* J = 58 */
(PID.TID 0010.0001)                 8.340000000000000E+05,      /* J = 59 */
(PID.TID 0010.0001)      . . .
(PID.TID 0010.0001)                 8.900000000000000E+05,      /* J = 73 */
(PID.TID 0010.0001)                 8.940000000000000E+05,      /* J = 74 */
(PID.TID 0010.0001)                 8.980000000000000E+05       /* J = 75 */
(PID.TID 0010.0001)     ;
(PID.TID 0010.0001) rcoord = /* P-point R coordinate (  units of r ) */
(PID.TID 0010.0001)                -1.000000000000000E+01,      /* K =  1 */
(PID.TID 0010.0001)                -3.000000000000000E+01,      /* K =  2 */
(PID.TID 0010.0001)                -5.000000000000000E+01,      /* K =  3 */
(PID.TID 0010.0001)                -7.000000000000000E+01,      /* K =  4 */
(PID.TID 0010.0001)                -9.000000000000000E+01,      /* K =  5 */
(PID.TID 0010.0001)                -1.100000000000000E+02,      /* K =  6 */
(PID.TID 0010.0001)                -1.300000000000000E+02,      /* K =  7 */
(PID.TID 0010.0001)                -1.500000000000000E+02,      /* K =  8 */
(PID.TID 0010.0001)                -1.700000000000000E+02,      /* K =  9 */
(PID.TID 0010.0001)                -1.900000000000000E+02,      /* K = 10 */
(PID.TID 0010.0001)                -2.100000000000000E+02,      /* K = 11 */
(PID.TID 0010.0001)                -2.300000000000000E+02,      /* K = 12 */
(PID.TID 0010.0001)                -2.500000000000000E+02,      /* K = 13 */
(PID.TID 0010.0001)                -2.700000000000000E+02,      /* K = 14 */
(PID.TID 0010.0001)                -2.900000000000000E+02,      /* K = 15 */
(PID.TID 0010.0001)                -3.100000000000000E+02,      /* K = 16 */
(PID.TID 0010.0001)                -3.300000000000000E+02,      /* K = 17 */
(PID.TID 0010.0001)                -3.500000000000000E+02,      /* K = 18 */
(PID.TID 0010.0001)                -3.700000000000000E+02,      /* K = 19 */
(PID.TID 0010.0001)                -3.900000000000000E+02,      /* K = 20 */
(PID.TID 0010.0001)                -4.100000000000000E+02,      /* K = 21 */
(PID.TID 0010.0001)                -4.300000000000000E+02,      /* K = 22 */
(PID.TID 0010.0001)                -4.500000000000000E+02,      /* K = 23 */
(PID.TID 0010.0001)                -4.700000000000000E+02,      /* K = 24 */
(PID.TID 0010.0001)                -4.900000000000000E+02,      /* K = 25 */
(PID.TID 0010.0001)                -5.100000000000000E+02,      /* K = 26 */
(PID.TID 0010.0001)                -5.300000000000000E+02,      /* K = 27 */
(PID.TID 0010.0001)                -5.500000000000000E+02,      /* K = 28 */
(PID.TID 0010.0001)                -5.700000000000000E+02,      /* K = 29 */
(PID.TID 0010.0001)                -5.900000000000000E+02,      /* K = 30 */
(PID.TID 0010.0001)                -6.100000000000000E+02,      /* K = 31 */
(PID.TID 0010.0001)                -6.300000000000000E+02,      /* K = 32 */
(PID.TID 0010.0001)                -6.500000000000000E+02,      /* K = 33 */
(PID.TID 0010.0001)                -6.700000000000000E+02,      /* K = 34 */
(PID.TID 0010.0001)                -6.900000000000000E+02,      /* K = 35 */
(PID.TID 0010.0001)                -7.100000000000000E+02,      /* K = 36 */
(PID.TID 0010.0001)                -7.300000000000000E+02,      /* K = 37 */
(PID.TID 0010.0001)                -7.500000000000000E+02,      /* K = 38 */
(PID.TID 0010.0001)                -7.700000000000000E+02,      /* K = 39 */
(PID.TID 0010.0001)                -7.900000000000000E+02       /* K = 40 */
(PID.TID 0010.0001)     ;
(PID.TID 0010.0001) rF =   /* W-Interf. R coordinate (  units of r ) */
(PID.TID 0010.0001)                 0.000000000000000E+00,      /* K =  1 */
(PID.TID 0010.0001)                -2.000000000000000E+01,      /* K =  2 */
(PID.TID 0010.0001)                -4.000000000000000E+01,      /* K =  3 */
(PID.TID 0010.0001)                -6.000000000000000E+01,      /* K =  4 */
(PID.TID 0010.0001)                -8.000000000000000E+01,      /* K =  5 */
(PID.TID 0010.0001)                -1.000000000000000E+02,      /* K =  6 */
(PID.TID 0010.0001)                -1.200000000000000E+02,      /* K =  7 */
(PID.TID 0010.0001)                -1.400000000000000E+02,      /* K =  8 */
(PID.TID 0010.0001)                -1.600000000000000E+02,      /* K =  9 */
(PID.TID 0010.0001)                -1.800000000000000E+02,      /* K = 10 */
(PID.TID 0010.0001)                -2.000000000000000E+02,      /* K = 11 */
(PID.TID 0010.0001)                -2.200000000000000E+02,      /* K = 12 */
(PID.TID 0010.0001)                -2.400000000000000E+02,      /* K = 13 */
(PID.TID 0010.0001)                -2.600000000000000E+02,      /* K = 14 */
(PID.TID 0010.0001)                -2.800000000000000E+02,      /* K = 15 */
(PID.TID 0010.0001)                -3.000000000000000E+02,      /* K = 16 */
(PID.TID 0010.0001)                -3.200000000000000E+02,      /* K = 17 */
(PID.TID 0010.0001)                -3.400000000000000E+02,      /* K = 18 */
(PID.TID 0010.0001)                -3.600000000000000E+02,      /* K = 19 */
(PID.TID 0010.0001)                -3.800000000000000E+02,      /* K = 20 */
(PID.TID 0010.0001)                -4.000000000000000E+02,      /* K = 21 */
(PID.TID 0010.0001)                -4.200000000000000E+02,      /* K = 22 */
(PID.TID 0010.0001)                -4.400000000000000E+02,      /* K = 23 */
(PID.TID 0010.0001)                -4.600000000000000E+02,      /* K = 24 */
(PID.TID 0010.0001)                -4.800000000000000E+02,      /* K = 25 */
(PID.TID 0010.0001)                -5.000000000000000E+02,      /* K = 26 */
(PID.TID 0010.0001)                -5.200000000000000E+02,      /* K = 27 */
[...]
 cg2d: Sum(rhs),rhsMax =   2.27373675443232E-12  1.14866722783308E-01
 cg2d: Sum(rhs),rhsMax =  -8.64019966684282E-12  1.14875120303304E-01
 cg2d: Sum(rhs),rhsMax =  -5.68434188608080E-12  1.14883514840683E-01
 cg2d: Sum(rhs),rhsMax =   4.32009983342141E-12  1.14891906389516E-01
 cg2d: Sum(rhs),rhsMax =   1.02318153949454E-11  1.14900294946337E-01
 cg2d: Sum(rhs),rhsMax =  -1.56887836055830E-11  1.14908680513904E-01
 cg2d: Sum(rhs),rhsMax =  -2.41016095969826E-11  1.14917063089611E-01
 cg2d: Sum(rhs),rhsMax =  -1.36424205265939E-11  1.14925442665038E-01
 cg2d: Sum(rhs),rhsMax =   2.13731254916638E-11  1.14933819230561E-01
 cg2d: Sum(rhs),rhsMax =   7.27595761418343E-12  1.14942192783705E-01
 cg2d: Sum(rhs),rhsMax =   2.72848410531878E-12  1.14950563311065E-01
 cg2d: Sum(rhs),rhsMax =  -4.77484718430787E-12  1.14958930802398E-01
 cg2d: Sum(rhs),rhsMax =  -1.25055521493778E-11  1.14967295242665E-01
 cg2d: Sum(rhs),rhsMax =   6.82121026329696E-13  1.14975656614143E-01
 cg2d: Sum(rhs),rhsMax =   3.18323145620525E-12  1.14984014901674E-01
 cg2d: Sum(rhs),rhsMax =  -2.31921148952097E-11  1.14992370077157E-01
 cg2d: Sum(rhs),rhsMax =  -3.16049408866093E-11  1.15000722126285E-01
 cg2d: Sum(rhs),rhsMax =  -3.27418092638254E-11  1.15009071019277E-01
 cg2d: Sum(rhs),rhsMax =  -1.25055521493778E-11  1.15017416738655E-01
 cg2d: Sum(rhs),rhsMax =  -2.77395884040743E-11  1.15025759253081E-01
 cg2d: Sum(rhs),rhsMax =  -7.73070496506989E-12  1.15034098534928E-01
 cg2d: Sum(rhs),rhsMax =   9.54969436861575E-12  1.15042434551990E-01
 cg2d: Sum(rhs),rhsMax =  -8.41282599139959E-12  1.15050767270344E-01
 cg2d: Sum(rhs),rhsMax =  -7.95807864051312E-12  1.15059096656396E-01
 cg2d: Sum(rhs),rhsMax =  -2.59205990005285E-11  1.15067422665550E-01
 cg2d: Sum(rhs),rhsMax =   3.86535248253495E-12  1.15075745257516E-01
 cg2d: Sum(rhs),rhsMax =   1.04591890703887E-11  1.15084064390170E-01
 cg2d: Sum(rhs),rhsMax =  -5.45696821063757E-12  1.15092380002150E-01
 cg2d: Sum(rhs),rhsMax =  -2.72848410531878E-12  1.15100692059105E-01
 cg2d: Sum(rhs),rhsMax =  -5.68434188608080E-12  1.15109000504454E-01
 cg2d: Sum(rhs),rhsMax =   1.54614099301398E-11  1.15117305273556E-01
 cg2d: Sum(rhs),rhsMax =  -1.06865627458319E-11  1.15125606334774E-01
 cg2d: Sum(rhs),rhsMax =   1.11413100967184E-11  1.15133903608329E-01
 cg2d: Sum(rhs),rhsMax =   2.52384779741988E-11  1.15142197054510E-01
 cg2d: Sum(rhs),rhsMax =   2.50111042987555E-12  1.15150486601297E-01
 cg2d: Sum(rhs),rhsMax =  -6.82121026329696E-13  1.15158772186533E-01
 cg2d: Sum(rhs),rhsMax =   9.09494701772928E-12  1.15167053765660E-01
 cg2d: Sum(rhs),rhsMax =  -1.65982783073559E-11  1.15175331244199E-01
 cg2d: Sum(rhs),rhsMax =   1.50066625792533E-11  1.15183604580963E-01
 cg2d: Sum(rhs),rhsMax =   2.66027200268582E-11  1.15191873692931E-01
 cg2d: Sum(rhs),rhsMax =  -1.00044417195022E-11  1.15200138520242E-01
 cg2d: Sum(rhs),rhsMax =  -3.63797880709171E-12  1.15208398986381E-01
 cg2d: Sum(rhs),rhsMax =   1.00044417195022E-11  1.15216655037591E-01
 cg2d: Sum(rhs),rhsMax =  -3.16049408866093E-11  1.15224906584801E-01
 cg2d: Sum(rhs),rhsMax =  -3.18323145620525E-12  1.15233153576648E-01
 cg2d: Sum(rhs),rhsMax =   1.00044417195022E-11  1.15241395934531E-01
 cg2d: Sum(rhs),rhsMax =  -1.75077730091289E-11  1.15249633606774E-01
 cg2d: Sum(rhs),rhsMax =  -4.32009983342141E-12  1.15257866521700E-01
 cg2d: Sum(rhs),rhsMax =  -1.00044417195022E-11  1.15266094606723E-01
 cg2d: Sum(rhs),rhsMax =   4.32009983342141E-12  1.15274317806571E-01
 cg2d: Sum(rhs),rhsMax =   1.11413100967184E-11  1.15282536046453E-01
 cg2d: Sum(rhs),rhsMax =  -6.13908923696727E-12  1.15290749267994E-01
 cg2d: Sum(rhs),rhsMax =   2.70574673777446E-11  1.15298957403396E-01
 cg2d: Sum(rhs),rhsMax =  -2.06910044653341E-11  1.15307160396829E-01
 cg2d: Sum(rhs),rhsMax =  -5.68434188608080E-12  1.15315358184704E-01
 cg2d: Sum(rhs),rhsMax =   1.29602995002642E-11  1.15323791941419E-01
 cg2d: Sum(rhs),rhsMax =  -7.04858393874019E-12  1.15332222113926E-01
 cg2d: Sum(rhs),rhsMax =   7.50333128962666E-12  1.15340646996137E-01
 cg2d: Sum(rhs),rhsMax =  -7.73070496506989E-12  1.15349066549498E-01
 cg2d: Sum(rhs),rhsMax =  -6.82121026329696E-12  1.15357480699879E-01
 cg2d: Sum(rhs),rhsMax =   8.64019966684282E-12  1.15365889398247E-01
 cg2d: Sum(rhs),rhsMax =   2.22826201934367E-11  1.15374292592221E-01
 cg2d: Sum(rhs),rhsMax =  -1.22781784739345E-11  1.15382690222182E-01
 cg2d: Sum(rhs),rhsMax =  -5.91171556152403E-12  1.15391082236286E-01
 cg2d: Sum(rhs),rhsMax =  -4.09272615797818E-12  1.15399468579415E-01
 cg2d: Sum(rhs),rhsMax =  -1.15960574476048E-11  1.15407849197150E-01
 cg2d: Sum(rhs),rhsMax =   4.77484718430787E-12  1.15416224039419E-01
 cg2d: Sum(rhs),rhsMax =  -2.72848410531878E-12  1.15424593045514E-01
 cg2d: Sum(rhs),rhsMax =   9.09494701772928E-13  1.15432956166628E-01
 cg2d: Sum(rhs),rhsMax =   2.27373675443232E-13  1.15441313342665E-01
 cg2d: Sum(rhs),rhsMax =  -1.11413100967184E-11  1.15449664518574E-01
 cg2d: Sum(rhs),rhsMax =  -1.36424205265939E-12  1.15458009647412E-01
 cg2d: Sum(rhs),rhsMax =   1.59161572810262E-12  1.15466348670764E-01
 cg2d: Sum(rhs),rhsMax =   1.27329258248210E-11  1.15474681538435E-01
 cg2d: Sum(rhs),rhsMax =   6.36646291241050E-12  1.15483008201855E-01
 cg2d: Sum(rhs),rhsMax =  -8.41282599139959E-12  1.15491328607832E-01
 cg2d: Sum(rhs),rhsMax =  -7.27595761418343E-12  1.15499642714566E-01
 cg2d: Sum(rhs),rhsMax =   7.04858393874019E-12  1.15507950470973E-01
 cg2d: Sum(rhs),rhsMax =   5.22959453519434E-12  1.15516251835079E-01
 cg2d: Sum(rhs),rhsMax =  -1.09139364212751E-11  1.15524546762925E-01
 cg2d: Sum(rhs),rhsMax =  -3.68345354218036E-11  1.15532835204847E-01
 cg2d: Sum(rhs),rhsMax =   2.72848410531878E-12  1.15541117131703E-01
 cg2d: Sum(rhs),rhsMax =   1.81898940354586E-12  1.15549392503335E-01
 cg2d: Sum(rhs),rhsMax =   1.63709046319127E-11  1.15557661275504E-01
 cg2d: Sum(rhs),rhsMax =  -2.09183781407773E-11  1.15565923417319E-01
 cg2d: Sum(rhs),rhsMax =  -5.91171556152403E-12  1.15574178901520E-01
 cg2d: Sum(rhs),rhsMax =  -3.63797880709171E-12  1.15582427696788E-01
 cg2d: Sum(rhs),rhsMax =   3.63797880709171E-12  1.15590669787179E-01
 cg2d: Sum(rhs),rhsMax =  -1.31876731757075E-11  1.15598905137326E-01
 cg2d: Sum(rhs),rhsMax =  -1.70530256582424E-11  1.15607133739686E-01
 cg2d: Sum(rhs),rhsMax =  -3.41060513164848E-12  1.15615355567380E-01
 cg2d: Sum(rhs),rhsMax =   6.82121026329696E-13  1.15623570615365E-01
 cg2d: Sum(rhs),rhsMax =   1.81898940354586E-11  1.15631778866536E-01
 cg2d: Sum(rhs),rhsMax =  -6.59383658785373E-12  1.15639980318831E-01
 cg2d: Sum(rhs),rhsMax =   1.36424205265939E-11  1.15648174963792E-01
 cg2d: Sum(rhs),rhsMax =   8.86757334228605E-12  1.15656362799649E-01
 cg2d: Sum(rhs),rhsMax =  -3.86535248253495E-12  1.15664543818311E-01
 cg2d: Sum(rhs),rhsMax =  -1.36424205265939E-11  1.15672718038557E-01
 cg2d: Sum(rhs),rhsMax =  -5.68434188608080E-12  1.15680885451369E-01
 cg2d: Sum(rhs),rhsMax =  -6.82121026329696E-12  1.15689046074569E-01
 cg2d: Sum(rhs),rhsMax =   9.77706804405898E-12  1.15697199918387E-01
 cg2d: Sum(rhs),rhsMax =   4.54747350886464E-12  1.15705346983130E-01
 cg2d: Sum(rhs),rhsMax =   7.95807864051312E-12  1.15713487301675E-01
 cg2d: Sum(rhs),rhsMax =   2.27373675443232E-13  1.15721620867071E-01
 cg2d: Sum(rhs),rhsMax =  -8.64019966684282E-12  1.15729747715129E-01
 cg2d: Sum(rhs),rhsMax =  -6.13908923696727E-12  1.15737867859287E-01
 cg2d: Sum(rhs),rhsMax =   1.02318153949454E-11  1.15745981317151E-01
 cg2d: Sum(rhs),rhsMax =   3.41060513164848E-12  1.15754088120597E-01
 cg2d: Sum(rhs),rhsMax =  -1.68256519827992E-11  1.15762188284357E-01
 cg2d: Sum(rhs),rhsMax =   1.15960574476048E-11  1.15770281836287E-01
 cg2d: Sum(rhs),rhsMax =  -8.18545231595635E-12  1.15778368809887E-01
 cg2d: Sum(rhs),rhsMax =  -2.84217094304040E-11  1.15786449217822E-01
 cg2d: Sum(rhs),rhsMax =   1.93267624126747E-11  1.15794523105878E-01
 cg2d: Sum(rhs),rhsMax =   2.04636307898909E-12  1.15802590496518E-01
 cg2d: Sum(rhs),rhsMax =  -1.13686837721616E-11  1.15810651412818E-01
 cg2d: Sum(rhs),rhsMax =  -1.06865627458319E-11  1.15818705904015E-01
 cg2d: Sum(rhs),rhsMax =  -2.04636307898909E-12  1.15826753984919E-01
 cg2d: Sum(rhs),rhsMax =   2.50111042987555E-11  1.15834795705082E-01
 cg2d: Sum(rhs),rhsMax =   2.43289832724258E-11  1.15842831089538E-01
 cg2d: Sum(rhs),rhsMax =   5.22959453519434E-12  1.15850860180808E-01
 cg2d: Sum(rhs),rhsMax =   1.04591890703887E-11  1.15858883018264E-01
 cg2d: Sum(rhs),rhsMax =  -9.54969436861575E-12  1.15866899634973E-01
 cg2d: Sum(rhs),rhsMax =  -1.43245415529236E-11  1.15874910085500E-01
 cg2d: Sum(rhs),rhsMax =  -2.11457518162206E-11  1.15882914403003E-01
 cg2d: Sum(rhs),rhsMax =  -1.25055521493778E-11  1.15890912633357E-01
 cg2d: Sum(rhs),rhsMax =  -9.32232069317251E-12  1.15898904831038E-01
 cg2d: Sum(rhs),rhsMax =  -1.52340362546965E-11  1.15906891036873E-01
 cg2d: Sum(rhs),rhsMax =  -1.93267624126747E-11  1.15914871308144E-01
 cg2d: Sum(rhs),rhsMax =   2.95585778076202E-12  1.15922845689521E-01
 cg2d: Sum(rhs),rhsMax =   9.09494701772928E-13  1.15930814236398E-01
 cg2d: Sum(rhs),rhsMax =   8.64019966684282E-12  1.15938776998160E-01
 cg2d: Sum(rhs),rhsMax =  -7.50333128962666E-12  1.15946734027866E-01
 cg2d: Sum(rhs),rhsMax =  -1.59161572810262E-12  1.15954685394316E-01
 cg2d: Sum(rhs),rhsMax =  -1.13686837721616E-11  1.15962631139191E-01
 cg2d: Sum(rhs),rhsMax =   4.77484718430787E-12  1.15970571334086E-01
 cg2d: Sum(rhs),rhsMax =   2.95585778076202E-12  1.15978506038538E-01
 cg2d: Sum(rhs),rhsMax =   1.36424205265939E-11  1.15986435308833E-01
 cg2d: Sum(rhs),rhsMax =  -1.95541360881180E-11  1.15994359211904E-01
 cg2d: Sum(rhs),rhsMax =   5.91171556152403E-12  1.16002277817987E-01
 cg2d: Sum(rhs),rhsMax =   3.41060513164848E-12  1.16010191180075E-01
 cg2d: Sum(rhs),rhsMax =   9.32232069317251E-12  1.16018099381706E-01
 cg2d: Sum(rhs),rhsMax =  -1.00044417195022E-11  1.16026002471203E-01
 cg2d: Sum(rhs),rhsMax =  -2.27373675443232E-13  1.16033900532136E-01
 cg2d: Sum(rhs),rhsMax =  -8.41282599139959E-12  1.16041793619593E-01
 cg2d: Sum(rhs),rhsMax =  -2.06910044653341E-11  1.16049681822895E-01
 cg2d: Sum(rhs),rhsMax =   1.81898940354586E-12  1.16057565186563E-01
 cg2d: Sum(rhs),rhsMax =  -5.68434188608080E-12  1.16065443798320E-01
 cg2d: Sum(rhs),rhsMax =   8.64019966684282E-12  1.16073317722205E-01
 cg2d: Sum(rhs),rhsMax =   2.38742359215394E-11  1.16081187021891E-01
 cg2d: Sum(rhs),rhsMax =  -1.25055521493778E-11  1.16089051775384E-01
 cg2d: Sum(rhs),rhsMax =  -1.18234311230481E-11  1.16096912037813E-01
 cg2d: Sum(rhs),rhsMax =  -5.22959453519434E-12  1.16104767879626E-01
 cg2d: Sum(rhs),rhsMax =   1.04591890703887E-11  1.16112619371677E-01
 cg2d: Sum(rhs),rhsMax =  -1.59161572810262E-12  1.16120466569001E-01
 cg2d: Sum(rhs),rhsMax =   9.09494701772928E-13  1.16128309545444E-01
 cg2d: Sum(rhs),rhsMax =  -1.13686837721616E-11  1.16136148351317E-01
 cg2d: Sum(rhs),rhsMax =  -2.27373675443232E-12  1.16143983058675E-01
 cg2d: Sum(rhs),rhsMax =  -8.86757334228605E-12  1.16151813722639E-01
 cg2d: Sum(rhs),rhsMax =  -4.09272615797818E-12  1.16159640400626E-01
 cg2d: Sum(rhs),rhsMax =  -1.70530256582424E-11  1.16167463153163E-01
 cg2d: Sum(rhs),rhsMax =  -4.54747350886464E-13  1.16175282029740E-01
 cg2d: Sum(rhs),rhsMax =  -2.27373675443232E-12  1.16183097089164E-01
 cg2d: Sum(rhs),rhsMax =   9.77706804405898E-12  1.16190908373260E-01
 cg2d: Sum(rhs),rhsMax =  -6.82121026329696E-13  1.16198715939271E-01
 cg2d: Sum(rhs),rhsMax =   1.84172677109018E-11  1.16206519826386E-01
 cg2d: Sum(rhs),rhsMax =   2.38742359215394E-11  1.16214320088092E-01
 cg2d: Sum(rhs),rhsMax =  -1.06865627458319E-11  1.16222116774658E-01
 cg2d: Sum(rhs),rhsMax =   1.81898940354586E-12  1.16229909926243E-01
 cg2d: Sum(rhs),rhsMax =   1.18234311230481E-11  1.16237699593614E-01
 cg2d: Sum(rhs),rhsMax =   1.59161572810262E-12  1.16245485812103E-01
 cg2d: Sum(rhs),rhsMax =   2.09183781407773E-11  1.16253268622049E-01
 cg2d: Sum(rhs),rhsMax =  -1.79625203600153E-11  1.16261048069400E-01
 cg2d: Sum(rhs),rhsMax =   1.22781784739345E-11  1.16268824173546E-01
 cg2d: Sum(rhs),rhsMax =  -1.95541360881180E-11  1.16276596989418E-01
 cg2d: Sum(rhs),rhsMax =  -1.09139364212751E-11  1.16284366527812E-01
 cg2d: Sum(rhs),rhsMax =   3.63797880709171E-12  1.16292132838976E-01
 cg2d: Sum(rhs),rhsMax =   1.31876731757075E-11  1.16299895945279E-01
 cg2d: Sum(rhs),rhsMax =  -2.50111042987555E-12  1.16307655882837E-01
 cg2d: Sum(rhs),rhsMax =  -1.45519152283669E-11  1.16315412686714E-01
 cg2d: Sum(rhs),rhsMax =  -9.77706804405898E-12  1.16323166369755E-01
 cg2d: Sum(rhs),rhsMax =   9.09494701772928E-12  1.16330916971499E-01
 cg2d: Sum(rhs),rhsMax =  -9.54969436861575E-12  1.16338664509770E-01
 cg2d: Sum(rhs),rhsMax =   4.54747350886464E-13  1.16346409002616E-01
 cg2d: Sum(rhs),rhsMax =   1.59161572810262E-12  1.16354150481892E-01
 cg2d: Sum(rhs),rhsMax =  -1.04591890703887E-11  1.16361888957099E-01
 cg2d: Sum(rhs),rhsMax =   2.52384779741988E-11  1.16369624447376E-01
 cg2d: Sum(rhs),rhsMax =   1.90993887372315E-11  1.16377356968440E-01
 cg2d: Sum(rhs),rhsMax =   8.18545231595635E-12  1.16385086535134E-01
 cg2d: Sum(rhs),rhsMax =  -2.43289832724258E-11  1.16392813158607E-01
 cg2d: Sum(rhs),rhsMax =  -3.63797880709171E-12  1.16400536847436E-01
 cg2d: Sum(rhs),rhsMax =  -6.13908923696727E-12  1.16408257618390E-01
 cg2d: Sum(rhs),rhsMax =   4.09272615797818E-12  1.16415975462095E-01
 cg2d: Sum(rhs),rhsMax =   4.77484718430787E-12  1.16423690398700E-01
 cg2d: Sum(rhs),rhsMax =   1.40971678774804E-11  1.16431402414980E-01
 cg2d: Sum(rhs),rhsMax =  -2.16004991671070E-11  1.16439111517404E-01
 cg2d: Sum(rhs),rhsMax =   5.45696821063757E-12  1.16446817693654E-01
 cg2d: Sum(rhs),rhsMax =   2.27373675443232E-13  1.16454520943660E-01
 cg2d: Sum(rhs),rhsMax =   1.13686837721616E-12  1.16462221250893E-01
 cg2d: Sum(rhs),rhsMax =   2.72848410531878E-12  1.16469918606768E-01
 cg2d: Sum(rhs),rhsMax =   3.18323145620525E-12  1.16477612997799E-01
 cg2d: Sum(rhs),rhsMax =   2.95585778076202E-12  1.16485304401847E-01
 cg2d: Sum(rhs),rhsMax =  -7.04858393874019E-12  1.16492992807595E-01
 cg2d: Sum(rhs),rhsMax =   6.82121026329696E-13  1.16500678179380E-01
 cg2d: Sum(rhs),rhsMax =  -5.68434188608080E-12  1.16508360510529E-01
 cg2d: Sum(rhs),rhsMax =   1.38697942020372E-11  1.16516039757867E-01
 cg2d: Sum(rhs),rhsMax =   1.29602995002642E-11  1.16523715897892E-01
 cg2d: Sum(rhs),rhsMax =  -7.50333128962666E-12  1.16531388898640E-01
 cg2d: Sum(rhs),rhsMax =  -1.25055521493778E-11  1.16539058738516E-01
 cg2d: Sum(rhs),rhsMax =   1.25055521493778E-11  1.16546725361576E-01
 cg2d: Sum(rhs),rhsMax =  -5.22959453519434E-12  1.16554388748610E-01
 cg2d: Sum(rhs),rhsMax =  -2.04636307898909E-12  1.16562049819511E-01
 cg2d: Sum(rhs),rhsMax =   1.20508047984913E-11  1.16569949361867E-01
 cg2d: Sum(rhs),rhsMax =  -2.72848410531878E-12  1.16577845538946E-01
 cg2d: Sum(rhs),rhsMax =  -5.22959453519434E-12  1.16585738307359E-01
 cg2d: Sum(rhs),rhsMax =  -5.45696821063757E-12  1.16593627630739E-01
 cg2d: Sum(rhs),rhsMax =  -2.16004991671070E-11  1.16601513450169E-01
 cg2d: Sum(rhs),rhsMax =  -1.59161572810262E-12  1.16609395727221E-01
 cg2d: Sum(rhs),rhsMax =  -2.02362571144477E-11  1.16617274412219E-01
 cg2d: Sum(rhs),rhsMax =  -1.81898940354586E-11  1.16625149449404E-01
 cg2d: Sum(rhs),rhsMax =   4.54747350886464E-12  1.16633020800688E-01
 cg2d: Sum(rhs),rhsMax =  -2.95585778076202E-12  1.16640888404125E-01
 cg2d: Sum(rhs),rhsMax =  -2.59205990005285E-11  1.16648752220307E-01
 cg2d: Sum(rhs),rhsMax =  -3.41060513164848E-12  1.16656612187693E-01
 cg2d: Sum(rhs),rhsMax =   3.06954461848363E-11  1.16664468262805E-01
 cg2d: Sum(rhs),rhsMax =   1.86446413863450E-11  1.16672320384498E-01
 cg2d: Sum(rhs),rhsMax =   0.00000000000000E+00  1.16680168499631E-01
 cg2d: Sum(rhs),rhsMax =  -5.00222085975111E-12  1.16688012557158E-01
 cg2d: Sum(rhs),rhsMax =  -1.18234311230481E-11  1.16695852496142E-01
 cg2d: Sum(rhs),rhsMax =   2.20552465179935E-11  1.16703688261859E-01
 cg2d: Sum(rhs),rhsMax =  -1.88720150617883E-11  1.16711519802765E-01
 cg2d: Sum(rhs),rhsMax =   1.18234311230481E-11  1.16719347054220E-01
 cg2d: Sum(rhs),rhsMax =  -1.13686837721616E-12  1.16727169961013E-01
 cg2d: Sum(rhs),rhsMax =  -2.04636307898909E-12  1.16734988469738E-01
 cg2d: Sum(rhs),rhsMax =  -1.59161572810262E-12  1.16742802516594E-01
 cg2d: Sum(rhs),rhsMax =  -1.40971678774804E-11  1.16750612043150E-01
 cg2d: Sum(rhs),rhsMax =   3.63797880709171E-12  1.16758416995790E-01
 cg2d: Sum(rhs),rhsMax =  -3.63797880709171E-12  1.16766217310543E-01
 cg2d: Sum(rhs),rhsMax =  -2.04636307898909E-11  1.16774012921825E-01
 cg2d: Sum(rhs),rhsMax =  -9.32232069317251E-12  1.16781803780568E-01
 cg2d: Sum(rhs),rhsMax =   7.27595761418343E-12  1.16789589808860E-01
 cg2d: Sum(rhs),rhsMax =  -3.41060513164848E-12  1.16797370963466E-01
 cg2d: Sum(rhs),rhsMax =  -9.77706804405898E-12  1.16805147168778E-01
 cg2d: Sum(rhs),rhsMax =   4.54747350886464E-13  1.16812918366742E-01
 cg2d: Sum(rhs),rhsMax =   1.72803993336856E-11  1.16820684495284E-01
 cg2d: Sum(rhs),rhsMax =   1.59161572810262E-12  1.16828445491187E-01
 cg2d: Sum(rhs),rhsMax =   2.27373675443232E-13  1.16836201292242E-01
 cg2d: Sum(rhs),rhsMax =  -1.52340362546965E-11  1.16843951828965E-01
 cg2d: Sum(rhs),rhsMax =  -3.63797880709171E-11  1.16851697042370E-01
 cg2d: Sum(rhs),rhsMax =  -2.95585778076202E-12  1.16859436873260E-01
 cg2d: Sum(rhs),rhsMax =   7.04858393874019E-12  1.16867171255808E-01
 cg2d: Sum(rhs),rhsMax =   2.04636307898909E-12  1.16874900135869E-01
 cg2d: Sum(rhs),rhsMax =  -2.72848410531878E-12  1.16882623443454E-01
 cg2d: Sum(rhs),rhsMax =  -6.36646291241050E-12  1.16890341117284E-01
 cg2d: Sum(rhs),rhsMax =   9.09494701772928E-13  1.16898053102464E-01
 cg2d: Sum(rhs),rhsMax =  -3.18323145620525E-12  1.16905759336137E-01
 cg2d: Sum(rhs),rhsMax =   2.16004991671070E-11  1.16913459762729E-01
 cg2d: Sum(rhs),rhsMax =  -4.54747350886464E-13  1.16921154323465E-01
 cg2d: Sum(rhs),rhsMax =  -6.36646291241050E-12  1.16928842968412E-01
 cg2d: Sum(rhs),rhsMax =   1.36424205265939E-12  1.16936525636858E-01
 cg2d: Sum(rhs),rhsMax =  -7.04858393874019E-12  1.16944202280355E-01
 cg2d: Sum(rhs),rhsMax =  -1.20508047984913E-11  1.16951872852817E-01
 cg2d: Sum(rhs),rhsMax =   5.91171556152403E-12  1.16959537304851E-01
 cg2d: Sum(rhs),rhsMax =   1.18234311230481E-11  1.16967195583701E-01
 cg2d: Sum(rhs),rhsMax =  -5.00222085975111E-12  1.16974847652327E-01
 cg2d: Sum(rhs),rhsMax =  -1.22781784739345E-11  1.16982493460344E-01
 cg2d: Sum(rhs),rhsMax =   4.54747350886464E-13  1.16990132972348E-01
 cg2d: Sum(rhs),rhsMax =  -6.82121026329696E-13  1.16997766141640E-01
 cg2d: Sum(rhs),rhsMax =  -1.81898940354586E-11  1.17005392937974E-01
 cg2d: Sum(rhs),rhsMax =  -7.27595761418343E-12  1.17013013324819E-01
 cg2d: Sum(rhs),rhsMax =   1.50066625792533E-11  1.17020627271431E-01
 cg2d: Sum(rhs),rhsMax =   1.86446413863450E-11  1.17028234744474E-01
 cg2d: Sum(rhs),rhsMax =   4.09272615797818E-12  1.17035835721591E-01
 cg2d: Sum(rhs),rhsMax =  -5.00222085975111E-12  1.17043430163268E-01
 cg2d: Sum(rhs),rhsMax =  -3.63797880709171E-12  1.17051018058479E-01
 cg2d: Sum(rhs),rhsMax =   4.77484718430787E-12  1.17058599379531E-01
 cg2d: Sum(rhs),rhsMax =  -3.41060513164848E-12  1.17066174109827E-01
 cg2d: Sum(rhs),rhsMax =  -1.18234311230481E-11  1.17073742225238E-01
 cg2d: Sum(rhs),rhsMax =   1.45519152283669E-11  1.17081303715065E-01
 cg2d: Sum(rhs),rhsMax =  -2.25099938688800E-11  1.17088858560410E-01
 cg2d: Sum(rhs),rhsMax =  -4.77484718430787E-12  1.17096406750908E-01
 cg2d: Sum(rhs),rhsMax =  -7.73070496506989E-12  1.17103948272779E-01
 cg2d: Sum(rhs),rhsMax =  -3.95630195271224E-11  1.17111483121635E-01
 cg2d: Sum(rhs),rhsMax =  -1.25055521493778E-11  1.17119011288261E-01
 cg2d: Sum(rhs),rhsMax =   2.04636307898909E-11  1.17126532767492E-01
 cg2d: Sum(rhs),rhsMax =   1.93267624126747E-11  1.17134047563422E-01
